*SPEF "ieee 1481-1999"
*DESIGN "user_proj_example"
*DATE "11:11:11 Fri 11 11, 1111"
*VENDOR "OpenRCX"
*PROGRAM "Parallel Extraction"
*VERSION "1.0"
*DESIGN_FLOW "NAME_SCOPE LOCAL" "PIN_CAP NONE"
*DIVIDER /
*DELIMITER :
*BUS_DELIMITER []
*T_UNIT 1 NS
*C_UNIT 1 PF
*R_UNIT 1 OHM
*L_UNIT 1 HENRY

*NAME_MAP
*1 analog_io[0]
*2 analog_io[10]
*3 analog_io[11]
*4 analog_io[12]
*5 analog_io[13]
*6 analog_io[14]
*7 analog_io[15]
*8 analog_io[16]
*9 analog_io[17]
*10 analog_io[18]
*11 analog_io[19]
*12 analog_io[1]
*13 analog_io[20]
*14 analog_io[21]
*15 analog_io[22]
*16 analog_io[23]
*17 analog_io[24]
*18 analog_io[25]
*19 analog_io[26]
*20 analog_io[27]
*21 analog_io[28]
*22 analog_io[2]
*23 analog_io[3]
*24 analog_io[4]
*25 analog_io[5]
*26 analog_io[6]
*27 analog_io[7]
*28 analog_io[8]
*29 analog_io[9]
*30 io_in[0]
*31 io_in[10]
*32 io_in[11]
*33 io_in[12]
*34 io_in[13]
*35 io_in[14]
*36 io_in[15]
*37 io_in[16]
*38 io_in[17]
*39 io_in[18]
*40 io_in[19]
*41 io_in[1]
*42 io_in[20]
*43 io_in[21]
*44 io_in[22]
*45 io_in[23]
*46 io_in[24]
*47 io_in[25]
*48 io_in[26]
*49 io_in[27]
*50 io_in[28]
*51 io_in[29]
*52 io_in[2]
*53 io_in[30]
*54 io_in[31]
*55 io_in[32]
*56 io_in[33]
*57 io_in[34]
*58 io_in[35]
*59 io_in[36]
*60 io_in[37]
*61 io_in[3]
*62 io_in[4]
*63 io_in[5]
*64 io_in[6]
*65 io_in[7]
*66 io_in[8]
*67 io_in[9]
*68 net64
*69 net74
*70 net75
*71 net76
*72 net77
*73 net78
*74 net79
*75 net80
*76 net81
*77 net82
*78 net83
*79 net65
*80 net84
*81 net85
*82 net86
*83 net87
*84 net88
*85 net89
*86 net90
*87 net91
*88 net92
*89 net93
*90 net66
*91 net94
*92 net95
*93 net96
*94 net97
*95 net98
*96 net99
*97 net100
*98 net101
*99 net67
*100 net68
*101 net69
*102 net70
*103 net71
*104 net72
*105 net73
*106 io_out[0]
*107 io_out[10]
*108 io_out[11]
*109 io_out[12]
*110 io_out[13]
*111 io_out[14]
*112 io_out[15]
*113 io_out[16]
*114 io_out[17]
*115 io_out[18]
*116 io_out[19]
*117 io_out[1]
*118 io_out[20]
*119 io_out[21]
*120 io_out[22]
*121 io_out[23]
*122 io_out[24]
*123 io_out[25]
*124 io_out[26]
*125 net102
*126 net103
*127 net104
*128 io_out[2]
*129 net105
*130 net106
*131 net107
*132 net108
*133 net109
*134 net110
*135 net111
*136 net112
*137 io_out[3]
*138 io_out[4]
*139 io_out[5]
*140 io_out[6]
*141 io_out[7]
*142 io_out[8]
*143 io_out[9]
*144 la_data_in[0]
*145 la_data_in[100]
*146 la_data_in[101]
*147 la_data_in[102]
*148 la_data_in[103]
*149 la_data_in[104]
*150 la_data_in[105]
*151 la_data_in[106]
*152 la_data_in[107]
*153 la_data_in[108]
*154 la_data_in[109]
*155 la_data_in[10]
*156 la_data_in[110]
*157 la_data_in[111]
*158 la_data_in[112]
*159 la_data_in[113]
*160 la_data_in[114]
*161 la_data_in[115]
*162 la_data_in[116]
*163 la_data_in[117]
*164 la_data_in[118]
*165 la_data_in[119]
*166 la_data_in[11]
*167 la_data_in[120]
*168 la_data_in[121]
*169 la_data_in[122]
*170 la_data_in[123]
*171 la_data_in[124]
*172 la_data_in[125]
*173 la_data_in[126]
*174 la_data_in[127]
*175 la_data_in[12]
*176 la_data_in[13]
*177 la_data_in[14]
*178 la_data_in[15]
*179 la_data_in[16]
*180 la_data_in[17]
*181 la_data_in[18]
*182 la_data_in[19]
*183 la_data_in[1]
*184 la_data_in[20]
*185 la_data_in[21]
*186 la_data_in[22]
*187 la_data_in[23]
*188 la_data_in[24]
*189 la_data_in[25]
*190 la_data_in[26]
*191 la_data_in[27]
*192 la_data_in[28]
*193 la_data_in[29]
*194 la_data_in[2]
*195 la_data_in[30]
*196 la_data_in[31]
*197 la_data_in[32]
*198 la_data_in[33]
*199 la_data_in[34]
*200 la_data_in[35]
*201 la_data_in[36]
*202 la_data_in[37]
*203 la_data_in[38]
*204 la_data_in[39]
*205 la_data_in[3]
*206 la_data_in[40]
*207 la_data_in[41]
*208 la_data_in[42]
*209 la_data_in[43]
*210 la_data_in[44]
*211 la_data_in[45]
*212 la_data_in[46]
*213 la_data_in[47]
*214 la_data_in[48]
*215 la_data_in[49]
*216 la_data_in[4]
*217 la_data_in[50]
*218 la_data_in[51]
*219 la_data_in[52]
*220 la_data_in[53]
*221 la_data_in[54]
*222 la_data_in[55]
*223 la_data_in[56]
*224 la_data_in[57]
*225 la_data_in[58]
*226 la_data_in[59]
*227 la_data_in[5]
*228 la_data_in[60]
*229 la_data_in[61]
*230 la_data_in[62]
*231 la_data_in[63]
*232 la_data_in[64]
*233 la_data_in[65]
*234 la_data_in[66]
*235 la_data_in[67]
*236 la_data_in[68]
*237 la_data_in[69]
*238 la_data_in[6]
*239 la_data_in[70]
*240 la_data_in[71]
*241 la_data_in[72]
*242 la_data_in[73]
*243 la_data_in[74]
*244 la_data_in[75]
*245 la_data_in[76]
*246 la_data_in[77]
*247 la_data_in[78]
*248 la_data_in[79]
*249 la_data_in[7]
*250 la_data_in[80]
*251 la_data_in[81]
*252 la_data_in[82]
*253 la_data_in[83]
*254 la_data_in[84]
*255 la_data_in[85]
*256 la_data_in[86]
*257 la_data_in[87]
*258 la_data_in[88]
*259 la_data_in[89]
*260 la_data_in[8]
*261 la_data_in[90]
*262 la_data_in[91]
*263 la_data_in[92]
*264 la_data_in[93]
*265 la_data_in[94]
*266 la_data_in[95]
*267 la_data_in[96]
*268 la_data_in[97]
*269 la_data_in[98]
*270 la_data_in[99]
*271 la_data_in[9]
*272 net113
*273 net213
*274 net214
*275 net215
*276 net216
*277 net217
*278 net218
*279 net219
*280 net220
*281 net221
*282 net222
*283 net123
*284 net223
*285 net224
*286 net225
*287 net226
*288 net227
*289 net228
*290 net229
*291 net230
*292 net231
*293 net232
*294 net124
*295 net233
*296 net234
*297 net235
*298 net236
*299 net237
*300 net238
*301 net239
*302 net240
*303 net125
*304 net126
*305 net127
*306 net128
*307 net129
*308 net130
*309 net131
*310 net132
*311 net114
*312 net133
*313 net134
*314 net135
*315 net136
*316 net137
*317 net138
*318 net139
*319 net140
*320 net141
*321 net142
*322 net115
*323 net143
*324 net144
*325 net145
*326 net146
*327 net147
*328 net148
*329 net149
*330 net150
*331 net151
*332 net152
*333 net116
*334 net153
*335 net154
*336 net155
*337 net156
*338 net157
*339 net158
*340 net159
*341 net160
*342 net161
*343 net162
*344 net117
*345 net163
*346 net164
*347 net165
*348 net166
*349 net167
*350 net168
*351 net169
*352 net170
*353 net171
*354 net172
*355 net118
*356 net173
*357 net174
*358 net175
*359 net176
*360 net177
*361 net178
*362 net179
*363 net180
*364 net181
*365 net182
*366 net119
*367 net183
*368 net184
*369 net185
*370 net186
*371 net187
*372 net188
*373 net189
*374 net190
*375 net191
*376 net192
*377 net120
*378 net193
*379 net194
*380 net195
*381 net196
*382 net197
*383 net198
*384 net199
*385 net200
*386 net201
*387 net202
*388 net121
*389 net203
*390 net204
*391 net205
*392 net206
*393 net207
*394 net208
*395 net209
*396 net210
*397 net211
*398 net212
*399 net122
*400 la_oenb[0]
*401 la_oenb[100]
*402 la_oenb[101]
*403 la_oenb[102]
*404 la_oenb[103]
*405 la_oenb[104]
*406 la_oenb[105]
*407 la_oenb[106]
*408 la_oenb[107]
*409 la_oenb[108]
*410 la_oenb[109]
*411 la_oenb[10]
*412 la_oenb[110]
*413 la_oenb[111]
*414 la_oenb[112]
*415 la_oenb[113]
*416 la_oenb[114]
*417 la_oenb[115]
*418 la_oenb[116]
*419 la_oenb[117]
*420 la_oenb[118]
*421 la_oenb[119]
*422 la_oenb[11]
*423 la_oenb[120]
*424 la_oenb[121]
*425 la_oenb[122]
*426 la_oenb[123]
*427 la_oenb[124]
*428 la_oenb[125]
*429 la_oenb[126]
*430 la_oenb[127]
*431 la_oenb[12]
*432 la_oenb[13]
*433 la_oenb[14]
*434 la_oenb[15]
*435 la_oenb[16]
*436 la_oenb[17]
*437 la_oenb[18]
*438 la_oenb[19]
*439 la_oenb[1]
*440 la_oenb[20]
*441 la_oenb[21]
*442 la_oenb[22]
*443 la_oenb[23]
*444 la_oenb[24]
*445 la_oenb[25]
*446 la_oenb[26]
*447 la_oenb[27]
*448 la_oenb[28]
*449 la_oenb[29]
*450 la_oenb[2]
*451 la_oenb[30]
*452 la_oenb[31]
*453 la_oenb[32]
*454 la_oenb[33]
*455 la_oenb[34]
*456 la_oenb[35]
*457 la_oenb[36]
*458 la_oenb[37]
*459 la_oenb[38]
*460 la_oenb[39]
*461 la_oenb[3]
*462 la_oenb[40]
*463 la_oenb[41]
*464 la_oenb[42]
*465 la_oenb[43]
*466 la_oenb[44]
*467 la_oenb[45]
*468 la_oenb[46]
*469 la_oenb[47]
*470 la_oenb[48]
*471 la_oenb[49]
*472 la_oenb[4]
*473 la_oenb[50]
*474 la_oenb[51]
*475 la_oenb[52]
*476 la_oenb[53]
*477 la_oenb[54]
*478 la_oenb[55]
*479 la_oenb[56]
*480 la_oenb[57]
*481 la_oenb[58]
*482 la_oenb[59]
*483 la_oenb[5]
*484 la_oenb[60]
*485 la_oenb[61]
*486 la_oenb[62]
*487 la_oenb[63]
*488 la_oenb[64]
*489 la_oenb[65]
*490 la_oenb[66]
*491 la_oenb[67]
*492 la_oenb[68]
*493 la_oenb[69]
*494 la_oenb[6]
*495 la_oenb[70]
*496 la_oenb[71]
*497 la_oenb[72]
*498 la_oenb[73]
*499 la_oenb[74]
*500 la_oenb[75]
*501 la_oenb[76]
*502 la_oenb[77]
*503 la_oenb[78]
*504 la_oenb[79]
*505 la_oenb[7]
*506 la_oenb[80]
*507 la_oenb[81]
*508 la_oenb[82]
*509 la_oenb[83]
*510 la_oenb[84]
*511 la_oenb[85]
*512 la_oenb[86]
*513 la_oenb[87]
*514 la_oenb[88]
*515 la_oenb[89]
*516 la_oenb[8]
*517 la_oenb[90]
*518 la_oenb[91]
*519 la_oenb[92]
*520 la_oenb[93]
*521 la_oenb[94]
*522 la_oenb[95]
*523 la_oenb[96]
*524 la_oenb[97]
*525 la_oenb[98]
*526 la_oenb[99]
*527 la_oenb[9]
*528 user_clock2
*529 net241
*530 net242
*531 net243
*534 wb_clk_i
*535 wb_rst_i
*536 net244
*537 wbs_adr_i[0]
*538 wbs_adr_i[10]
*539 wbs_adr_i[11]
*540 wbs_adr_i[12]
*541 wbs_adr_i[13]
*542 wbs_adr_i[14]
*543 wbs_adr_i[15]
*544 wbs_adr_i[16]
*545 wbs_adr_i[17]
*546 wbs_adr_i[18]
*547 wbs_adr_i[19]
*548 wbs_adr_i[1]
*549 wbs_adr_i[20]
*550 wbs_adr_i[21]
*551 wbs_adr_i[22]
*552 wbs_adr_i[23]
*553 wbs_adr_i[24]
*554 wbs_adr_i[25]
*555 wbs_adr_i[26]
*556 wbs_adr_i[27]
*557 wbs_adr_i[28]
*558 wbs_adr_i[29]
*559 wbs_adr_i[2]
*560 wbs_adr_i[30]
*561 wbs_adr_i[31]
*562 wbs_adr_i[3]
*563 wbs_adr_i[4]
*564 wbs_adr_i[5]
*565 wbs_adr_i[6]
*566 wbs_adr_i[7]
*567 wbs_adr_i[8]
*568 wbs_adr_i[9]
*569 wbs_cyc_i
*570 wbs_dat_i[0]
*571 wbs_dat_i[10]
*572 wbs_dat_i[11]
*573 wbs_dat_i[12]
*574 wbs_dat_i[13]
*575 wbs_dat_i[14]
*576 wbs_dat_i[15]
*577 wbs_dat_i[16]
*578 wbs_dat_i[17]
*579 wbs_dat_i[18]
*580 wbs_dat_i[19]
*581 wbs_dat_i[1]
*582 wbs_dat_i[20]
*583 wbs_dat_i[21]
*584 wbs_dat_i[22]
*585 wbs_dat_i[23]
*586 wbs_dat_i[24]
*587 wbs_dat_i[25]
*588 wbs_dat_i[26]
*589 wbs_dat_i[27]
*590 wbs_dat_i[28]
*591 wbs_dat_i[29]
*592 wbs_dat_i[2]
*593 wbs_dat_i[30]
*594 wbs_dat_i[31]
*595 wbs_dat_i[3]
*596 wbs_dat_i[4]
*597 wbs_dat_i[5]
*598 wbs_dat_i[6]
*599 wbs_dat_i[7]
*600 wbs_dat_i[8]
*601 wbs_dat_i[9]
*602 net245
*603 net255
*604 net256
*605 net257
*606 net258
*607 net259
*608 net260
*609 net261
*610 net262
*611 net263
*612 net264
*613 net246
*614 net265
*615 net266
*616 net267
*617 net268
*618 net269
*619 net270
*620 net271
*621 net272
*622 net273
*623 net274
*624 net247
*625 net275
*626 net276
*627 net248
*628 net249
*629 net250
*630 net251
*631 net252
*632 net253
*633 net254
*634 wbs_sel_i[0]
*635 wbs_sel_i[1]
*636 wbs_sel_i[2]
*637 wbs_sel_i[3]
*638 wbs_stb_i
*639 wbs_we_i
*640 _000_
*641 _001_
*642 _002_
*643 _003_
*644 _004_
*645 _005_
*646 _006_
*647 _007_
*648 _008_
*649 _009_
*650 _010_
*651 _011_
*652 _012_
*653 _013_
*654 _014_
*655 _015_
*656 _016_
*657 _017_
*658 _018_
*659 _019_
*660 _020_
*661 _021_
*662 _022_
*663 _023_
*664 _024_
*665 _025_
*666 _026_
*667 _027_
*668 _028_
*669 _029_
*670 _030_
*671 _031_
*672 _032_
*673 _033_
*674 _034_
*675 _035_
*676 _036_
*677 _037_
*678 _038_
*679 _039_
*680 _040_
*681 _041_
*682 _042_
*683 _043_
*684 _044_
*685 _045_
*686 _046_
*687 _047_
*688 _048_
*689 _049_
*690 _050_
*691 _051_
*692 _052_
*693 _053_
*694 _054_
*695 _055_
*696 _056_
*697 _057_
*698 _058_
*699 _059_
*700 _060_
*701 _061_
*702 _062_
*703 _063_
*704 _064_
*705 _065_
*706 _066_
*707 _067_
*708 _068_
*709 _069_
*710 _070_
*711 _071_
*712 _072_
*713 _073_
*714 _074_
*715 _075_
*716 _076_
*717 _077_
*718 _078_
*719 _079_
*720 _080_
*721 _081_
*722 _082_
*723 _083_
*724 _084_
*725 _085_
*726 _086_
*727 _087_
*728 _088_
*729 _089_
*730 _090_
*731 _091_
*732 _092_
*733 _093_
*734 _094_
*735 _095_
*736 _096_
*737 _097_
*738 _098_
*739 _099_
*740 _100_
*741 _101_
*742 _102_
*743 _103_
*744 _104_
*745 _105_
*746 _106_
*747 _107_
*748 _108_
*749 _109_
*750 _110_
*751 _111_
*752 _112_
*753 _113_
*754 _114_
*755 _115_
*756 _116_
*757 _117_
*758 _118_
*759 _119_
*760 _120_
*761 _121_
*762 _122_
*763 _123_
*764 _124_
*765 _125_
*766 _126_
*767 _127_
*768 _128_
*769 _129_
*770 _130_
*771 _131_
*772 _132_
*773 _133_
*774 _134_
*775 _135_
*776 _136_
*777 _137_
*778 _138_
*779 _139_
*780 _140_
*781 _141_
*782 _142_
*783 _143_
*784 _144_
*785 _145_
*786 _146_
*787 _147_
*788 _148_
*789 _149_
*790 _150_
*791 _151_
*792 _152_
*793 _153_
*794 _154_
*795 _155_
*796 _156_
*797 _157_
*798 _158_
*799 _159_
*800 _160_
*801 _161_
*802 _162_
*803 _163_
*804 _164_
*805 _165_
*806 _166_
*807 _167_
*808 _168_
*809 _169_
*810 _170_
*811 _171_
*812 _172_
*813 _173_
*814 _174_
*815 _175_
*816 _176_
*817 _177_
*818 _178_
*819 _179_
*820 _180_
*821 _181_
*822 _182_
*823 _183_
*824 _184_
*825 _185_
*826 _186_
*827 _187_
*828 _188_
*829 _189_
*830 _190_
*831 _191_
*832 _192_
*833 _193_
*834 _194_
*835 _195_
*836 net1
*837 net10
*838 net11
*839 net12
*840 net13
*841 net14
*842 net15
*843 net16
*844 net17
*845 net18
*846 net19
*847 net2
*848 net20
*849 net21
*850 net22
*851 net23
*852 net24
*853 net25
*854 net26
*855 net27
*856 net28
*857 net29
*858 net3
*859 net30
*860 net31
*861 net32
*862 net33
*863 net34
*864 net35
*865 net36
*866 net37
*867 net38
*868 net39
*869 net4
*870 net40
*871 net41
*872 net42
*873 net43
*874 net44
*875 net45
*876 net46
*877 net47
*878 net48
*879 net49
*880 net5
*881 net50
*882 net51
*883 net52
*884 net53
*885 net54
*886 net55
*887 net56
*888 net57
*889 net58
*890 net59
*891 net6
*892 net60
*893 net61
*894 net62
*895 net63
*896 net7
*897 net8
*898 net9
*899 ANTENNA__196__A
*900 ANTENNA__199__A
*901 ANTENNA__199__B
*902 ANTENNA__200__A
*903 ANTENNA__200__B_N
*904 ANTENNA__205__A
*905 ANTENNA__208__B1
*906 ANTENNA__209__A
*907 ANTENNA__212__A
*908 ANTENNA__213__A
*909 ANTENNA__216__B1
*910 ANTENNA__218__A1
*911 ANTENNA__220__A
*912 ANTENNA__221__A
*913 ANTENNA__222__A
*914 ANTENNA__223__A
*915 ANTENNA__225__A
*916 ANTENNA__226__B1
*917 ANTENNA__228__A
*918 ANTENNA__229__A
*919 ANTENNA__233__A
*920 ANTENNA__234__A
*921 ANTENNA__238__A
*922 ANTENNA__242__A
*923 ANTENNA__243__A
*924 ANTENNA__246__A
*925 ANTENNA__247__A
*926 ANTENNA__248__A2
*927 ANTENNA__249__A2
*928 ANTENNA__259__A
*929 ANTENNA__260__A
*930 ANTENNA__260__B_N
*931 ANTENNA__262__A
*932 ANTENNA__263__A
*933 ANTENNA__263__B
*934 ANTENNA__264__A2
*935 ANTENNA__264__A3
*936 ANTENNA__265__A1
*937 ANTENNA__266__A1
*938 ANTENNA__267__A
*939 ANTENNA__269__A
*940 ANTENNA__274__A
*941 ANTENNA__279__A
*942 ANTENNA__283__A
*943 ANTENNA__287__A
*944 ANTENNA__289__B1
*945 ANTENNA__290__A
*946 ANTENNA__290__B
*947 ANTENNA__291__A
*948 ANTENNA__292__B1
*949 ANTENNA__298__A2
*950 ANTENNA__299__A
*951 ANTENNA__308__A1
*952 ANTENNA__310__A
*953 ANTENNA__314__A
*954 ANTENNA__315__A1_N
*955 ANTENNA__315__B2
*956 ANTENNA__316__A1
*957 ANTENNA__317__A1
*958 ANTENNA__320__A
*959 ANTENNA__325__A
*960 ANTENNA__325__B
*961 ANTENNA__328__A
*962 ANTENNA__329__A2
*963 ANTENNA__330__A2
*964 ANTENNA__337__A2
*965 ANTENNA__337__B1
*966 ANTENNA__338__A2
*967 ANTENNA__341__A
*968 ANTENNA__341__B
*969 ANTENNA__343__A2
*970 ANTENNA__344__A2
*971 ANTENNA__352__A
*972 ANTENNA__352__B
*973 ANTENNA__356__A1
*974 ANTENNA__356__A2
*975 ANTENNA__357__A2
*976 ANTENNA__363__B1
*977 ANTENNA__367__A
*978 ANTENNA__367__B
*979 ANTENNA__370__A1
*980 ANTENNA__371__A1
*981 ANTENNA__376__A
*982 ANTENNA__377__A2
*983 ANTENNA__378__A2
*984 ANTENNA__381__A
*985 ANTENNA__381__B
*986 ANTENNA__383__B1
*987 ANTENNA__392__A2
*988 ANTENNA__393__A2
*989 ANTENNA__396__A
*990 ANTENNA__399__A1
*991 ANTENNA__400__A1
*992 ANTENNA__400__B1
*993 ANTENNA__404__B1
*994 ANTENNA__411__A
*995 ANTENNA__415__A2
*996 ANTENNA__415__B1
*997 ANTENNA__416__A2
*998 ANTENNA__418__A
*999 ANTENNA_input10_A
*1000 ANTENNA_input11_A
*1001 ANTENNA_input12_A
*1002 ANTENNA_input13_A
*1003 ANTENNA_input14_A
*1004 ANTENNA_input15_A
*1005 ANTENNA_input16_A
*1006 ANTENNA_input17_A
*1007 ANTENNA_input18_A
*1008 ANTENNA_input19_A
*1009 ANTENNA_input1_A
*1010 ANTENNA_input20_A
*1011 ANTENNA_input21_A
*1012 ANTENNA_input22_A
*1013 ANTENNA_input23_A
*1014 ANTENNA_input24_A
*1015 ANTENNA_input25_A
*1016 ANTENNA_input26_A
*1017 ANTENNA_input27_A
*1018 ANTENNA_input28_A
*1019 ANTENNA_input29_A
*1020 ANTENNA_input2_A
*1021 ANTENNA_input30_A
*1022 ANTENNA_input31_A
*1023 ANTENNA_input32_A
*1024 ANTENNA_input33_A
*1025 ANTENNA_input34_A
*1026 ANTENNA_input35_A
*1027 ANTENNA_input36_A
*1028 ANTENNA_input3_A
*1029 ANTENNA_input4_A
*1030 ANTENNA_input5_A
*1031 ANTENNA_input6_A
*1032 ANTENNA_input7_A
*1033 ANTENNA_input8_A
*1034 ANTENNA_input9_A
*1035 ANTENNA_output37_A
*1036 ANTENNA_output38_A
*1037 ANTENNA_output39_A
*1038 ANTENNA_output40_A
*1039 ANTENNA_output44_A
*1040 ANTENNA_output48_A
*1041 ANTENNA_output50_A
*1042 ANTENNA_output51_A
*1043 ANTENNA_output52_A
*1044 ANTENNA_output53_A
*1045 ANTENNA_output54_A
*1046 ANTENNA_output55_A
*1047 ANTENNA_output56_A
*1048 ANTENNA_output57_A
*1049 ANTENNA_output58_A
*1050 ANTENNA_output59_A
*1051 ANTENNA_output60_A
*1052 ANTENNA_output61_A
*1053 ANTENNA_output62_A
*1054 ANTENNA_output63_A
*1055 FILLER_0_1007
*1056 FILLER_0_1012
*1057 FILLER_0_1023
*1058 FILLER_0_1035
*1059 FILLER_0_1040
*1060 FILLER_0_1047
*1061 FILLER_0_1058
*1062 FILLER_0_1065
*1063 FILLER_0_1070
*1064 FILLER_0_1078
*1065 FILLER_0_1082
*1066 FILLER_0_1090
*1067 FILLER_0_1096
*1068 FILLER_0_1102
*1069 FILLER_0_1106
*1070 FILLER_0_111
*1071 FILLER_0_1118
*1072 FILLER_0_1124
*1073 FILLER_0_1131
*1074 FILLER_0_1137
*1075 FILLER_0_1141
*1076 FILLER_0_1147
*1077 FILLER_0_1149
*1078 FILLER_0_1153
*1079 FILLER_0_116
*1080 FILLER_0_1161
*1081 FILLER_0_1165
*1082 FILLER_0_1173
*1083 FILLER_0_1180
*1084 FILLER_0_1189
*1085 FILLER_0_1201
*1086 FILLER_0_1208
*1087 FILLER_0_1215
*1088 FILLER_0_1221
*1089 FILLER_0_1225
*1090 FILLER_0_123
*1091 FILLER_0_1231
*1092 FILLER_0_1236
*1093 FILLER_0_1244
*1094 FILLER_0_1248
*1095 FILLER_0_1264
*1096 FILLER_0_1268
*1097 FILLER_0_1272
*1098 FILLER_0_1280
*1099 FILLER_0_1284
*1100 FILLER_0_1289
*1101 FILLER_0_1296
*1102 FILLER_0_1304
*1103 FILLER_0_1308
*1104 FILLER_0_131
*1105 FILLER_0_1320
*1106 FILLER_0_1328
*1107 FILLER_0_1332
*1108 FILLER_0_1348
*1109 FILLER_0_135
*1110 FILLER_0_1355
*1111 FILLER_0_1363
*1112 FILLER_0_1367
*1113 FILLER_0_1371
*1114 FILLER_0_1373
*1115 FILLER_0_1379
*1116 FILLER_0_1387
*1117 FILLER_0_139
*1118 FILLER_0_1391
*1119 FILLER_0_1399
*1120 FILLER_0_1404
*1121 FILLER_0_141
*1122 FILLER_0_1415
*1123 FILLER_0_1427
*1124 FILLER_0_1432
*1125 FILLER_0_1439
*1126 FILLER_0_1450
*1127 FILLER_0_1457
*1128 FILLER_0_1462
*1129 FILLER_0_147
*1130 FILLER_0_1470
*1131 FILLER_0_1474
*1132 FILLER_0_1482
*1133 FILLER_0_1488
*1134 FILLER_0_1494
*1135 FILLER_0_1498
*1136 FILLER_0_1510
*1137 FILLER_0_1516
*1138 FILLER_0_1523
*1139 FILLER_0_1534
*1140 FILLER_0_1541
*1141 FILLER_0_1545
*1142 FILLER_0_155
*1143 FILLER_0_1553
*1144 FILLER_0_1557
*1145 FILLER_0_1565
*1146 FILLER_0_1572
*1147 FILLER_0_1581
*1148 FILLER_0_159
*1149 FILLER_0_1593
*1150 FILLER_0_1600
*1151 FILLER_0_1607
*1152 FILLER_0_1613
*1153 FILLER_0_1617
*1154 FILLER_0_1623
*1155 FILLER_0_1625
*1156 FILLER_0_1629
*1157 FILLER_0_1637
*1158 FILLER_0_1641
*1159 FILLER_0_1649
*1160 FILLER_0_1656
*1161 FILLER_0_1660
*1162 FILLER_0_1664
*1163 FILLER_0_167
*1164 FILLER_0_1672
*1165 FILLER_0_1676
*1166 FILLER_0_1681
*1167 FILLER_0_1688
*1168 FILLER_0_1696
*1169 FILLER_0_1700
*1170 FILLER_0_1712
*1171 FILLER_0_172
*1172 FILLER_0_1720
*1173 FILLER_0_1724
*1174 FILLER_0_1740
*1175 FILLER_0_1747
*1176 FILLER_0_1755
*1177 FILLER_0_1759
*1178 FILLER_0_1763
*1179 FILLER_0_1765
*1180 FILLER_0_1771
*1181 FILLER_0_1779
*1182 FILLER_0_1783
*1183 FILLER_0_1791
*1184 FILLER_0_1796
*1185 FILLER_0_18
*1186 FILLER_0_1807
*1187 FILLER_0_1819
*1188 FILLER_0_1824
*1189 FILLER_0_183
*1190 FILLER_0_1831
*1191 FILLER_0_1839
*1192 FILLER_0_1843
*1193 FILLER_0_1847
*1194 FILLER_0_1849
*1195 FILLER_0_1854
*1196 FILLER_0_1862
*1197 FILLER_0_1866
*1198 FILLER_0_1874
*1199 FILLER_0_1880
*1200 FILLER_0_1886
*1201 FILLER_0_1890
*1202 FILLER_0_1902
*1203 FILLER_0_1908
*1204 FILLER_0_1915
*1205 FILLER_0_1921
*1206 FILLER_0_1925
*1207 FILLER_0_195
*1208 FILLER_0_200
*1209 FILLER_0_207
*1210 FILLER_0_218
*1211 FILLER_0_225
*1212 FILLER_0_230
*1213 FILLER_0_238
*1214 FILLER_0_24
*1215 FILLER_0_242
*1216 FILLER_0_250
*1217 FILLER_0_256
*1218 FILLER_0_262
*1219 FILLER_0_266
*1220 FILLER_0_278
*1221 FILLER_0_284
*1222 FILLER_0_29
*1223 FILLER_0_291
*1224 FILLER_0_302
*1225 FILLER_0_309
*1226 FILLER_0_313
*1227 FILLER_0_321
*1228 FILLER_0_325
*1229 FILLER_0_333
*1230 FILLER_0_340
*1231 FILLER_0_349
*1232 FILLER_0_361
*1233 FILLER_0_368
*1234 FILLER_0_375
*1235 FILLER_0_381
*1236 FILLER_0_385
*1237 FILLER_0_391
*1238 FILLER_0_393
*1239 FILLER_0_397
*1240 FILLER_0_40
*1241 FILLER_0_408
*1242 FILLER_0_412
*1243 FILLER_0_416
*1244 FILLER_0_421
*1245 FILLER_0_428
*1246 FILLER_0_436
*1247 FILLER_0_440
*1248 FILLER_0_452
*1249 FILLER_0_460
*1250 FILLER_0_464
*1251 FILLER_0_480
*1252 FILLER_0_484
*1253 FILLER_0_488
*1254 FILLER_0_496
*1255 FILLER_0_500
*1256 FILLER_0_505
*1257 FILLER_0_511
*1258 FILLER_0_519
*1259 FILLER_0_52
*1260 FILLER_0_523
*1261 FILLER_0_531
*1262 FILLER_0_536
*1263 FILLER_0_547
*1264 FILLER_0_559
*1265 FILLER_0_564
*1266 FILLER_0_571
*1267 FILLER_0_579
*1268 FILLER_0_583
*1269 FILLER_0_587
*1270 FILLER_0_589
*1271 FILLER_0_595
*1272 FILLER_0_6
*1273 FILLER_0_60
*1274 FILLER_0_603
*1275 FILLER_0_607
*1276 FILLER_0_615
*1277 FILLER_0_620
*1278 FILLER_0_626
*1279 FILLER_0_630
*1280 FILLER_0_642
*1281 FILLER_0_648
*1282 FILLER_0_655
*1283 FILLER_0_666
*1284 FILLER_0_673
*1285 FILLER_0_678
*1286 FILLER_0_68
*1287 FILLER_0_686
*1288 FILLER_0_690
*1289 FILLER_0_698
*1290 FILLER_0_704
*1291 FILLER_0_710
*1292 FILLER_0_714
*1293 FILLER_0_72
*1294 FILLER_0_726
*1295 FILLER_0_732
*1296 FILLER_0_739
*1297 FILLER_0_745
*1298 FILLER_0_749
*1299 FILLER_0_755
*1300 FILLER_0_757
*1301 FILLER_0_761
*1302 FILLER_0_769
*1303 FILLER_0_773
*1304 FILLER_0_781
*1305 FILLER_0_788
*1306 FILLER_0_797
*1307 FILLER_0_809
*1308 FILLER_0_816
*1309 FILLER_0_823
*1310 FILLER_0_832
*1311 FILLER_0_844
*1312 FILLER_0_852
*1313 FILLER_0_856
*1314 FILLER_0_872
*1315 FILLER_0_876
*1316 FILLER_0_88
*1317 FILLER_0_880
*1318 FILLER_0_888
*1319 FILLER_0_892
*1320 FILLER_0_897
*1321 FILLER_0_904
*1322 FILLER_0_912
*1323 FILLER_0_916
*1324 FILLER_0_928
*1325 FILLER_0_939
*1326 FILLER_0_951
*1327 FILLER_0_956
*1328 FILLER_0_963
*1329 FILLER_0_971
*1330 FILLER_0_975
*1331 FILLER_0_979
*1332 FILLER_0_981
*1333 FILLER_0_987
*1334 FILLER_0_99
*1335 FILLER_0_995
*1336 FILLER_0_999
*1337 FILLER_100_1005
*1338 FILLER_100_1017
*1339 FILLER_100_1029
*1340 FILLER_100_1035
*1341 FILLER_100_1037
*1342 FILLER_100_1049
*1343 FILLER_100_1061
*1344 FILLER_100_1073
*1345 FILLER_100_1085
*1346 FILLER_100_109
*1347 FILLER_100_1091
*1348 FILLER_100_1093
*1349 FILLER_100_1105
*1350 FILLER_100_1117
*1351 FILLER_100_1129
*1352 FILLER_100_1141
*1353 FILLER_100_1147
*1354 FILLER_100_1149
*1355 FILLER_100_1161
*1356 FILLER_100_1173
*1357 FILLER_100_1185
*1358 FILLER_100_1197
*1359 FILLER_100_1203
*1360 FILLER_100_1205
*1361 FILLER_100_121
*1362 FILLER_100_1217
*1363 FILLER_100_1229
*1364 FILLER_100_1241
*1365 FILLER_100_1253
*1366 FILLER_100_1259
*1367 FILLER_100_1261
*1368 FILLER_100_1273
*1369 FILLER_100_1285
*1370 FILLER_100_1297
*1371 FILLER_100_1309
*1372 FILLER_100_1315
*1373 FILLER_100_1317
*1374 FILLER_100_1329
*1375 FILLER_100_133
*1376 FILLER_100_1341
*1377 FILLER_100_1353
*1378 FILLER_100_1365
*1379 FILLER_100_1371
*1380 FILLER_100_1373
*1381 FILLER_100_1385
*1382 FILLER_100_139
*1383 FILLER_100_1397
*1384 FILLER_100_1409
*1385 FILLER_100_141
*1386 FILLER_100_1421
*1387 FILLER_100_1427
*1388 FILLER_100_1429
*1389 FILLER_100_1441
*1390 FILLER_100_1453
*1391 FILLER_100_1465
*1392 FILLER_100_1477
*1393 FILLER_100_1483
*1394 FILLER_100_1485
*1395 FILLER_100_1497
*1396 FILLER_100_15
*1397 FILLER_100_1509
*1398 FILLER_100_1521
*1399 FILLER_100_153
*1400 FILLER_100_1533
*1401 FILLER_100_1539
*1402 FILLER_100_1541
*1403 FILLER_100_1553
*1404 FILLER_100_1565
*1405 FILLER_100_1577
*1406 FILLER_100_1589
*1407 FILLER_100_1595
*1408 FILLER_100_1597
*1409 FILLER_100_1609
*1410 FILLER_100_1621
*1411 FILLER_100_1633
*1412 FILLER_100_1645
*1413 FILLER_100_165
*1414 FILLER_100_1651
*1415 FILLER_100_1653
*1416 FILLER_100_1665
*1417 FILLER_100_1677
*1418 FILLER_100_1689
*1419 FILLER_100_1701
*1420 FILLER_100_1707
*1421 FILLER_100_1709
*1422 FILLER_100_1721
*1423 FILLER_100_1733
*1424 FILLER_100_1745
*1425 FILLER_100_1757
*1426 FILLER_100_1763
*1427 FILLER_100_1765
*1428 FILLER_100_177
*1429 FILLER_100_1777
*1430 FILLER_100_1789
*1431 FILLER_100_1801
*1432 FILLER_100_1813
*1433 FILLER_100_1819
*1434 FILLER_100_1821
*1435 FILLER_100_1833
*1436 FILLER_100_1845
*1437 FILLER_100_1857
*1438 FILLER_100_1869
*1439 FILLER_100_1875
*1440 FILLER_100_1877
*1441 FILLER_100_1889
*1442 FILLER_100_189
*1443 FILLER_100_1901
*1444 FILLER_100_1913
*1445 FILLER_100_1925
*1446 FILLER_100_195
*1447 FILLER_100_197
*1448 FILLER_100_209
*1449 FILLER_100_221
*1450 FILLER_100_233
*1451 FILLER_100_245
*1452 FILLER_100_251
*1453 FILLER_100_253
*1454 FILLER_100_265
*1455 FILLER_100_27
*1456 FILLER_100_277
*1457 FILLER_100_289
*1458 FILLER_100_29
*1459 FILLER_100_3
*1460 FILLER_100_301
*1461 FILLER_100_307
*1462 FILLER_100_309
*1463 FILLER_100_321
*1464 FILLER_100_333
*1465 FILLER_100_345
*1466 FILLER_100_357
*1467 FILLER_100_363
*1468 FILLER_100_365
*1469 FILLER_100_377
*1470 FILLER_100_389
*1471 FILLER_100_401
*1472 FILLER_100_41
*1473 FILLER_100_413
*1474 FILLER_100_419
*1475 FILLER_100_421
*1476 FILLER_100_433
*1477 FILLER_100_445
*1478 FILLER_100_457
*1479 FILLER_100_469
*1480 FILLER_100_475
*1481 FILLER_100_477
*1482 FILLER_100_489
*1483 FILLER_100_501
*1484 FILLER_100_513
*1485 FILLER_100_525
*1486 FILLER_100_53
*1487 FILLER_100_531
*1488 FILLER_100_533
*1489 FILLER_100_545
*1490 FILLER_100_557
*1491 FILLER_100_569
*1492 FILLER_100_581
*1493 FILLER_100_587
*1494 FILLER_100_589
*1495 FILLER_100_601
*1496 FILLER_100_613
*1497 FILLER_100_625
*1498 FILLER_100_637
*1499 FILLER_100_643
*1500 FILLER_100_645
*1501 FILLER_100_65
*1502 FILLER_100_657
*1503 FILLER_100_669
*1504 FILLER_100_681
*1505 FILLER_100_693
*1506 FILLER_100_699
*1507 FILLER_100_701
*1508 FILLER_100_713
*1509 FILLER_100_725
*1510 FILLER_100_737
*1511 FILLER_100_749
*1512 FILLER_100_755
*1513 FILLER_100_757
*1514 FILLER_100_769
*1515 FILLER_100_77
*1516 FILLER_100_781
*1517 FILLER_100_793
*1518 FILLER_100_805
*1519 FILLER_100_811
*1520 FILLER_100_813
*1521 FILLER_100_825
*1522 FILLER_100_83
*1523 FILLER_100_837
*1524 FILLER_100_849
*1525 FILLER_100_85
*1526 FILLER_100_861
*1527 FILLER_100_867
*1528 FILLER_100_869
*1529 FILLER_100_881
*1530 FILLER_100_893
*1531 FILLER_100_905
*1532 FILLER_100_917
*1533 FILLER_100_923
*1534 FILLER_100_925
*1535 FILLER_100_937
*1536 FILLER_100_949
*1537 FILLER_100_961
*1538 FILLER_100_97
*1539 FILLER_100_973
*1540 FILLER_100_979
*1541 FILLER_100_981
*1542 FILLER_100_993
*1543 FILLER_101_1001
*1544 FILLER_101_1007
*1545 FILLER_101_1009
*1546 FILLER_101_1021
*1547 FILLER_101_1033
*1548 FILLER_101_1045
*1549 FILLER_101_105
*1550 FILLER_101_1057
*1551 FILLER_101_1063
*1552 FILLER_101_1065
*1553 FILLER_101_1077
*1554 FILLER_101_1089
*1555 FILLER_101_1101
*1556 FILLER_101_111
*1557 FILLER_101_1113
*1558 FILLER_101_1119
*1559 FILLER_101_1121
*1560 FILLER_101_113
*1561 FILLER_101_1133
*1562 FILLER_101_1145
*1563 FILLER_101_1157
*1564 FILLER_101_1169
*1565 FILLER_101_1175
*1566 FILLER_101_1177
*1567 FILLER_101_1189
*1568 FILLER_101_1201
*1569 FILLER_101_1213
*1570 FILLER_101_1225
*1571 FILLER_101_1231
*1572 FILLER_101_1233
*1573 FILLER_101_1245
*1574 FILLER_101_125
*1575 FILLER_101_1257
*1576 FILLER_101_1269
*1577 FILLER_101_1281
*1578 FILLER_101_1287
*1579 FILLER_101_1289
*1580 FILLER_101_1301
*1581 FILLER_101_1313
*1582 FILLER_101_1325
*1583 FILLER_101_1337
*1584 FILLER_101_1343
*1585 FILLER_101_1345
*1586 FILLER_101_1357
*1587 FILLER_101_1369
*1588 FILLER_101_137
*1589 FILLER_101_1381
*1590 FILLER_101_1393
*1591 FILLER_101_1399
*1592 FILLER_101_1401
*1593 FILLER_101_1413
*1594 FILLER_101_1425
*1595 FILLER_101_1437
*1596 FILLER_101_1449
*1597 FILLER_101_1455
*1598 FILLER_101_1457
*1599 FILLER_101_1469
*1600 FILLER_101_1481
*1601 FILLER_101_149
*1602 FILLER_101_1493
*1603 FILLER_101_15
*1604 FILLER_101_1505
*1605 FILLER_101_1511
*1606 FILLER_101_1513
*1607 FILLER_101_1525
*1608 FILLER_101_1537
*1609 FILLER_101_1549
*1610 FILLER_101_1561
*1611 FILLER_101_1567
*1612 FILLER_101_1569
*1613 FILLER_101_1581
*1614 FILLER_101_1593
*1615 FILLER_101_1605
*1616 FILLER_101_161
*1617 FILLER_101_1617
*1618 FILLER_101_1623
*1619 FILLER_101_1625
*1620 FILLER_101_1637
*1621 FILLER_101_1649
*1622 FILLER_101_1661
*1623 FILLER_101_167
*1624 FILLER_101_1673
*1625 FILLER_101_1679
*1626 FILLER_101_1681
*1627 FILLER_101_169
*1628 FILLER_101_1693
*1629 FILLER_101_1705
*1630 FILLER_101_1717
*1631 FILLER_101_1729
*1632 FILLER_101_1735
*1633 FILLER_101_1737
*1634 FILLER_101_1749
*1635 FILLER_101_1761
*1636 FILLER_101_1773
*1637 FILLER_101_1785
*1638 FILLER_101_1791
*1639 FILLER_101_1793
*1640 FILLER_101_1805
*1641 FILLER_101_181
*1642 FILLER_101_1817
*1643 FILLER_101_1829
*1644 FILLER_101_1841
*1645 FILLER_101_1847
*1646 FILLER_101_1849
*1647 FILLER_101_1861
*1648 FILLER_101_1873
*1649 FILLER_101_1885
*1650 FILLER_101_1897
*1651 FILLER_101_1903
*1652 FILLER_101_1905
*1653 FILLER_101_1917
*1654 FILLER_101_193
*1655 FILLER_101_205
*1656 FILLER_101_217
*1657 FILLER_101_223
*1658 FILLER_101_225
*1659 FILLER_101_237
*1660 FILLER_101_249
*1661 FILLER_101_261
*1662 FILLER_101_27
*1663 FILLER_101_273
*1664 FILLER_101_279
*1665 FILLER_101_281
*1666 FILLER_101_293
*1667 FILLER_101_3
*1668 FILLER_101_305
*1669 FILLER_101_317
*1670 FILLER_101_329
*1671 FILLER_101_335
*1672 FILLER_101_337
*1673 FILLER_101_349
*1674 FILLER_101_361
*1675 FILLER_101_373
*1676 FILLER_101_385
*1677 FILLER_101_39
*1678 FILLER_101_391
*1679 FILLER_101_393
*1680 FILLER_101_405
*1681 FILLER_101_417
*1682 FILLER_101_429
*1683 FILLER_101_441
*1684 FILLER_101_447
*1685 FILLER_101_449
*1686 FILLER_101_461
*1687 FILLER_101_473
*1688 FILLER_101_485
*1689 FILLER_101_497
*1690 FILLER_101_503
*1691 FILLER_101_505
*1692 FILLER_101_51
*1693 FILLER_101_517
*1694 FILLER_101_529
*1695 FILLER_101_541
*1696 FILLER_101_55
*1697 FILLER_101_553
*1698 FILLER_101_559
*1699 FILLER_101_561