*SPEF "ieee 1481-1999"
*DESIGN "user_proj_example"
*DATE "11:11:11 Fri 11 11, 1111"
*VENDOR "OpenRCX"
*PROGRAM "Parallel Extraction"
*VERSION "1.0"
*DESIGN_FLOW "NAME_SCOPE LOCAL" "PIN_CAP NONE"
*DIVIDER /
*DELIMITER :
*BUS_DELIMITER []
*T_UNIT 1 NS
*C_UNIT 1 PF
*R_UNIT 1 OHM
*L_UNIT 1 HENRY

*NAME_MAP
*1 analog_io[0]
*2 analog_io[10]
*3 analog_io[11]
*4 analog_io[12]
*5 analog_io[13]
*6 analog_io[14]
*7 analog_io[15]
*8 analog_io[16]
*9 analog_io[17]
*10 analog_io[18]
*11 analog_io[19]
*12 analog_io[1]
*13 analog_io[20]
*14 analog_io[21]
*15 analog_io[22]
*16 analog_io[23]
*17 analog_io[24]
*18 analog_io[25]
*19 analog_io[26]
*20 analog_io[27]
*21 analog_io[28]
*22 analog_io[2]
*23 analog_io[3]
*24 analog_io[4]
*25 analog_io[5]
*26 analog_io[6]
*27 analog_io[7]
*28 analog_io[8]
*29 analog_io[9]
*30 io_in[0]
*31 io_in[10]
*32 io_in[11]
*33 io_in[12]
*34 io_in[13]
*35 io_in[14]
*36 io_in[15]
*37 io_in[16]
*38 io_in[17]
*39 io_in[18]
*40 io_in[19]
*41 io_in[1]
*42 io_in[20]
*43 io_in[21]
*44 io_in[22]
*45 io_in[23]
*46 io_in[24]
*47 io_in[25]
*48 io_in[26]
*49 io_in[27]
*50 io_in[28]
*51 io_in[29]
*52 io_in[2]
*53 io_in[30]
*54 io_in[31]
*55 io_in[32]
*56 io_in[33]
*57 io_in[34]
*58 io_in[35]
*59 io_in[36]
*60 io_in[37]
*61 io_in[3]
*62 io_in[4]
*63 io_in[5]
*64 io_in[6]
*65 io_in[7]
*66 io_in[8]
*67 io_in[9]
*68 net64
*69 net74
*70 net75
*71 net76
*72 net77
*73 net78
*74 net79
*75 net80
*76 net81
*77 net82
*78 net83
*79 net65
*80 net84
*81 net85
*82 net86
*83 net87
*84 net88
*85 net89
*86 net90
*87 net91
*88 net92
*89 net93
*90 net66
*91 net94
*92 net95
*93 net96
*94 net97
*95 net98
*96 net99
*97 net100
*98 net101
*99 net67
*100 net68
*101 net69
*102 net70
*103 net71
*104 net72
*105 net73
*106 io_out[0]
*107 io_out[10]
*108 io_out[11]
*109 io_out[12]
*110 io_out[13]
*111 io_out[14]
*112 io_out[15]
*113 io_out[16]
*114 io_out[17]
*115 io_out[18]
*116 io_out[19]
*117 io_out[1]
*118 io_out[20]
*119 io_out[21]
*120 io_out[22]
*121 io_out[23]
*122 io_out[24]
*123 io_out[25]
*124 io_out[26]
*125 net102
*126 net103
*127 net104
*128 io_out[2]
*129 net105
*130 net106
*131 net107
*132 net108
*133 net109
*134 net110
*135 net111
*136 net112
*137 io_out[3]
*138 io_out[4]
*139 io_out[5]
*140 io_out[6]
*141 io_out[7]
*142 io_out[8]
*143 io_out[9]
*144 net113
*145 net114
*146 net115
*147 la_data_in[0]
*148 la_data_in[100]
*149 la_data_in[101]
*150 la_data_in[102]
*151 la_data_in[103]
*152 la_data_in[104]
*153 la_data_in[105]
*154 la_data_in[106]
*155 la_data_in[107]
*156 la_data_in[108]
*157 la_data_in[109]
*158 la_data_in[10]
*159 la_data_in[110]
*160 la_data_in[111]
*161 la_data_in[112]
*162 la_data_in[113]
*163 la_data_in[114]
*164 la_data_in[115]
*165 la_data_in[116]
*166 la_data_in[117]
*167 la_data_in[118]
*168 la_data_in[119]
*169 la_data_in[11]
*170 la_data_in[120]
*171 la_data_in[121]
*172 la_data_in[122]
*173 la_data_in[123]
*174 la_data_in[124]
*175 la_data_in[125]
*176 la_data_in[126]
*177 la_data_in[127]
*178 la_data_in[12]
*179 la_data_in[13]
*180 la_data_in[14]
*181 la_data_in[15]
*182 la_data_in[16]
*183 la_data_in[17]
*184 la_data_in[18]
*185 la_data_in[19]
*186 la_data_in[1]
*187 la_data_in[20]
*188 la_data_in[21]
*189 la_data_in[22]
*190 la_data_in[23]
*191 la_data_in[24]
*192 la_data_in[25]
*193 la_data_in[26]
*194 la_data_in[27]
*195 la_data_in[28]
*196 la_data_in[29]
*197 la_data_in[2]
*198 la_data_in[30]
*199 la_data_in[31]
*200 la_data_in[32]
*201 la_data_in[33]
*202 la_data_in[34]
*203 la_data_in[35]
*204 la_data_in[36]
*205 la_data_in[37]
*206 la_data_in[38]
*207 la_data_in[39]
*208 la_data_in[3]
*209 la_data_in[40]
*210 la_data_in[41]
*211 la_data_in[42]
*212 la_data_in[43]
*213 la_data_in[44]
*214 la_data_in[45]
*215 la_data_in[46]
*216 la_data_in[47]
*217 la_data_in[48]
*218 la_data_in[49]
*219 la_data_in[4]
*220 la_data_in[50]
*221 la_data_in[51]
*222 la_data_in[52]
*223 la_data_in[53]
*224 la_data_in[54]
*225 la_data_in[55]
*226 la_data_in[56]
*227 la_data_in[57]
*228 la_data_in[58]
*229 la_data_in[59]
*230 la_data_in[5]
*231 la_data_in[60]
*232 la_data_in[61]
*233 la_data_in[62]
*234 la_data_in[63]
*235 la_data_in[64]
*236 la_data_in[65]
*237 la_data_in[66]
*238 la_data_in[67]
*239 la_data_in[68]
*240 la_data_in[69]
*241 la_data_in[6]
*242 la_data_in[70]
*243 la_data_in[71]
*244 la_data_in[72]
*245 la_data_in[73]
*246 la_data_in[74]
*247 la_data_in[75]
*248 la_data_in[76]
*249 la_data_in[77]
*250 la_data_in[78]
*251 la_data_in[79]
*252 la_data_in[7]
*253 la_data_in[80]
*254 la_data_in[81]
*255 la_data_in[82]
*256 la_data_in[83]
*257 la_data_in[84]
*258 la_data_in[85]
*259 la_data_in[86]
*260 la_data_in[87]
*261 la_data_in[88]
*262 la_data_in[89]
*263 la_data_in[8]
*264 la_data_in[90]
*265 la_data_in[91]
*266 la_data_in[92]
*267 la_data_in[93]
*268 la_data_in[94]
*269 la_data_in[95]
*270 la_data_in[96]
*271 la_data_in[97]
*272 la_data_in[98]
*273 la_data_in[99]
*274 la_data_in[9]
*275 net116
*276 net216
*277 net217
*278 net218
*279 net219
*280 net220
*281 net221
*282 net222
*283 net223
*284 net224
*285 net225
*286 net126
*287 net226
*288 net227
*289 net228
*290 net229
*291 net230
*292 net231
*293 net232
*294 net233
*295 net234
*296 net235
*297 net127
*298 net236
*299 net237
*300 net238
*301 net239
*302 net240
*303 net241
*304 net242
*305 net243
*306 net128
*307 net129
*308 net130
*309 net131
*310 net132
*311 net133
*312 net134
*313 net135
*314 net117
*315 net136
*316 net137
*317 net138
*318 net139
*319 net140
*320 net141
*321 net142
*322 net143
*323 net144
*324 net145
*325 net118
*326 net146
*327 net147
*328 net148
*329 net149
*330 net150
*331 net151
*332 net152
*333 net153
*334 net154
*335 net155
*336 net119
*337 net156
*338 net157
*339 net158
*340 net159
*341 net160
*342 net161
*343 net162
*344 net163
*345 net164
*346 net165
*347 net120
*348 net166
*349 net167
*350 net168
*351 net169
*352 net170
*353 net171
*354 net172
*355 net173
*356 net174
*357 net175
*358 net121
*359 net176
*360 net177
*361 net178
*362 net179
*363 net180
*364 net181
*365 net182
*366 net183
*367 net184
*368 net185
*369 net122
*370 net186
*371 net187
*372 net188
*373 net189
*374 net190
*375 net191
*376 net192
*377 net193
*378 net194
*379 net195
*380 net123
*381 net196
*382 net197
*383 net198
*384 net199
*385 net200
*386 net201
*387 net202
*388 net203
*389 net204
*390 net205
*391 net124
*392 net206
*393 net207
*394 net208
*395 net209
*396 net210
*397 net211
*398 net212
*399 net213
*400 net214
*401 net215
*402 net125
*403 la_oenb[0]
*404 la_oenb[100]
*405 la_oenb[101]
*406 la_oenb[102]
*407 la_oenb[103]
*408 la_oenb[104]
*409 la_oenb[105]
*410 la_oenb[106]
*411 la_oenb[107]
*412 la_oenb[108]
*413 la_oenb[109]
*414 la_oenb[10]
*415 la_oenb[110]
*416 la_oenb[111]
*417 la_oenb[112]
*418 la_oenb[113]
*419 la_oenb[114]
*420 la_oenb[115]
*421 la_oenb[116]
*422 la_oenb[117]
*423 la_oenb[118]
*424 la_oenb[119]
*425 la_oenb[11]
*426 la_oenb[120]
*427 la_oenb[121]
*428 la_oenb[122]
*429 la_oenb[123]
*430 la_oenb[124]
*431 la_oenb[125]
*432 la_oenb[126]
*433 la_oenb[127]
*434 la_oenb[12]
*435 la_oenb[13]
*436 la_oenb[14]
*437 la_oenb[15]
*438 la_oenb[16]
*439 la_oenb[17]
*440 la_oenb[18]
*441 la_oenb[19]
*442 la_oenb[1]
*443 la_oenb[20]
*444 la_oenb[21]
*445 la_oenb[22]
*446 la_oenb[23]
*447 la_oenb[24]
*448 la_oenb[25]
*449 la_oenb[26]
*450 la_oenb[27]
*451 la_oenb[28]
*452 la_oenb[29]
*453 la_oenb[2]
*454 la_oenb[30]
*455 la_oenb[31]
*456 la_oenb[32]
*457 la_oenb[33]
*458 la_oenb[34]
*459 la_oenb[35]
*460 la_oenb[36]
*461 la_oenb[37]
*462 la_oenb[38]
*463 la_oenb[39]
*464 la_oenb[3]
*465 la_oenb[40]
*466 la_oenb[41]
*467 la_oenb[42]
*468 la_oenb[43]
*469 la_oenb[44]
*470 la_oenb[45]
*471 la_oenb[46]
*472 la_oenb[47]
*473 la_oenb[48]
*474 la_oenb[49]
*475 la_oenb[4]
*476 la_oenb[50]
*477 la_oenb[51]
*478 la_oenb[52]
*479 la_oenb[53]
*480 la_oenb[54]
*481 la_oenb[55]
*482 la_oenb[56]
*483 la_oenb[57]
*484 la_oenb[58]
*485 la_oenb[59]
*486 la_oenb[5]
*487 la_oenb[60]
*488 la_oenb[61]
*489 la_oenb[62]
*490 la_oenb[63]
*491 la_oenb[64]
*492 la_oenb[65]
*493 la_oenb[66]
*494 la_oenb[67]
*495 la_oenb[68]
*496 la_oenb[69]
*497 la_oenb[6]
*498 la_oenb[70]
*499 la_oenb[71]
*500 la_oenb[72]
*501 la_oenb[73]
*502 la_oenb[74]
*503 la_oenb[75]
*504 la_oenb[76]
*505 la_oenb[77]
*506 la_oenb[78]
*507 la_oenb[79]
*508 la_oenb[7]
*509 la_oenb[80]
*510 la_oenb[81]
*511 la_oenb[82]
*512 la_oenb[83]
*513 la_oenb[84]
*514 la_oenb[85]
*515 la_oenb[86]
*516 la_oenb[87]
*517 la_oenb[88]
*518 la_oenb[89]
*519 la_oenb[8]
*520 la_oenb[90]
*521 la_oenb[91]
*522 la_oenb[92]
*523 la_oenb[93]
*524 la_oenb[94]
*525 la_oenb[95]
*526 la_oenb[96]
*527 la_oenb[97]
*528 la_oenb[98]
*529 la_oenb[99]
*530 la_oenb[9]
*531 user_clock2
*534 wb_clk_i
*535 wb_rst_i
*536 net244
*537 wbs_adr_i[0]
*538 wbs_adr_i[10]
*539 wbs_adr_i[11]
*540 wbs_adr_i[12]
*541 wbs_adr_i[13]
*542 wbs_adr_i[14]
*543 wbs_adr_i[15]
*544 wbs_adr_i[16]
*545 wbs_adr_i[17]
*546 wbs_adr_i[18]
*547 wbs_adr_i[19]
*548 wbs_adr_i[1]
*549 wbs_adr_i[20]
*550 wbs_adr_i[21]
*551 wbs_adr_i[22]
*552 wbs_adr_i[23]
*553 wbs_adr_i[24]
*554 wbs_adr_i[25]
*555 wbs_adr_i[26]
*556 wbs_adr_i[27]
*557 wbs_adr_i[28]
*558 wbs_adr_i[29]
*559 wbs_adr_i[2]
*560 wbs_adr_i[30]
*561 wbs_adr_i[31]
*562 wbs_adr_i[3]
*563 wbs_adr_i[4]
*564 wbs_adr_i[5]
*565 wbs_adr_i[6]
*566 wbs_adr_i[7]
*567 wbs_adr_i[8]
*568 wbs_adr_i[9]
*569 wbs_cyc_i
*570 wbs_dat_i[0]
*571 wbs_dat_i[10]
*572 wbs_dat_i[11]
*573 wbs_dat_i[12]
*574 wbs_dat_i[13]
*575 wbs_dat_i[14]
*576 wbs_dat_i[15]
*577 wbs_dat_i[16]
*578 wbs_dat_i[17]
*579 wbs_dat_i[18]
*580 wbs_dat_i[19]
*581 wbs_dat_i[1]
*582 wbs_dat_i[20]
*583 wbs_dat_i[21]
*584 wbs_dat_i[22]
*585 wbs_dat_i[23]
*586 wbs_dat_i[24]
*587 wbs_dat_i[25]
*588 wbs_dat_i[26]
*589 wbs_dat_i[27]
*590 wbs_dat_i[28]
*591 wbs_dat_i[29]
*592 wbs_dat_i[2]
*593 wbs_dat_i[30]
*594 wbs_dat_i[31]
*595 wbs_dat_i[3]
*596 wbs_dat_i[4]
*597 wbs_dat_i[5]
*598 wbs_dat_i[6]
*599 wbs_dat_i[7]
*600 wbs_dat_i[8]
*601 wbs_dat_i[9]
*602 net245
*603 net255
*604 net256
*605 net257
*606 net258
*607 net259
*608 net260
*609 net261
*610 net262
*611 net263
*612 net264
*613 net246
*614 net265
*615 net266
*616 net267
*617 net268
*618 net269
*619 net270
*620 net271
*621 net272
*622 net273
*623 net274
*624 net247
*625 net275
*626 net276
*627 net248
*628 net249
*629 net250
*630 net251
*631 net252
*632 net253
*633 net254
*634 wbs_sel_i[0]
*635 wbs_sel_i[1]
*636 wbs_sel_i[2]
*637 wbs_sel_i[3]
*638 wbs_stb_i
*639 wbs_we_i
*640 _000_
*641 _001_
*642 _002_
*643 _003_
*644 _004_
*645 _005_
*646 _006_
*647 _007_
*648 _008_
*649 _009_
*650 _010_
*651 _011_
*652 _012_
*653 _013_
*654 _014_
*655 _015_
*656 _016_
*657 _017_
*658 _018_
*659 _019_
*660 _020_
*661 _021_
*662 _022_
*663 _023_
*664 _024_
*665 _025_
*666 _026_
*667 _027_
*668 _028_
*669 _029_
*670 _030_
*671 _031_
*672 _032_
*673 _033_
*674 _034_
*675 _035_
*676 _036_
*677 _037_
*678 _038_
*679 _039_
*680 _040_
*681 _041_
*682 _042_
*683 _043_
*684 _044_
*685 _045_
*686 _046_
*687 _047_
*688 _048_
*689 _049_
*690 _050_
*691 _051_
*692 _052_
*693 _053_
*694 _054_
*695 _055_
*696 _056_
*697 _057_
*698 _058_
*699 _059_
*700 _060_
*701 _061_
*702 _062_
*703 _063_
*704 _064_
*705 _065_
*706 _066_
*707 _067_
*708 _068_
*709 _069_
*710 _070_
*711 _071_
*712 _072_
*713 _073_
*714 _074_
*715 _075_
*716 _076_
*717 _077_
*718 _078_
*719 _079_
*720 _080_
*721 _081_
*722 _082_
*723 _083_
*724 _084_
*725 _085_
*726 _086_
*727 _087_
*728 _088_
*729 _089_
*730 _090_
*731 _091_
*732 _092_
*733 _093_
*734 _094_
*735 _095_
*736 _096_
*737 _097_
*738 _098_
*739 _099_
*740 _100_
*741 _101_
*742 _102_
*743 _103_
*744 _104_
*745 _105_
*746 _106_
*747 _107_
*748 _108_
*749 _109_
*750 _110_
*751 _111_
*752 _112_
*753 _113_
*754 _114_
*755 _115_
*756 _116_
*757 _117_
*758 _118_
*759 _119_
*760 _120_
*761 _121_
*762 _122_
*763 _123_
*764 _124_
*765 _125_
*766 _126_
*767 _127_
*768 _128_
*769 _129_
*770 _130_
*771 _131_
*772 _132_
*773 _133_
*774 _134_
*775 _135_
*776 _136_
*777 _137_
*778 _138_
*779 _139_
*780 _140_
*781 _141_
*782 _142_
*783 _143_
*784 _144_
*785 _145_
*786 _146_
*787 _147_
*788 _148_
*789 _149_
*790 _150_
*791 _151_
*792 _152_
*793 _153_
*794 _154_
*795 _155_
*796 _156_
*797 _157_
*798 _158_
*799 _159_
*800 _160_
*801 _161_
*802 _162_
*803 _163_
*804 _164_
*805 _165_
*806 _166_
*807 _167_
*808 _168_
*809 _169_
*810 _170_
*811 _171_
*812 _172_
*813 _173_
*814 _174_
*815 _175_
*816 _176_
*817 _177_
*818 _178_
*819 _179_
*820 _180_
*821 _181_
*822 _182_
*823 _183_
*824 _184_
*825 _185_
*826 _186_
*827 _187_
*828 _188_
*829 _189_
*830 _190_
*831 _191_
*832 _192_
*833 _193_
*834 _194_
*835 _195_
*836 net1
*837 net10
*838 net11
*839 net12
*840 net13
*841 net14
*842 net15
*843 net16
*844 net17
*845 net18
*846 net19
*847 net2
*848 net20
*849 net21
*850 net22
*851 net23
*852 net24
*853 net25
*854 net26
*855 net27
*856 net28
*857 net29
*858 net3
*859 net30
*860 net31
*861 net32
*862 net33
*863 net34
*864 net35
*865 net36
*866 net37
*867 net38
*868 net39
*869 net4
*870 net40
*871 net41
*872 net42
*873 net43
*874 net44
*875 net45
*876 net46
*877 net47
*878 net48
*879 net49
*880 net5
*881 net50
*882 net51
*883 net52
*884 net53
*885 net54
*886 net55
*887 net56
*888 net57
*889 net58
*890 net59
*891 net6
*892 net60
*893 net61
*894 net62
*895 net63
*896 net7
*897 net8
*898 net9
*899 ANTENNA__196__A
*900 ANTENNA__199__A
*901 ANTENNA__199__B
*902 ANTENNA__200__A
*903 ANTENNA__200__B_N
*904 ANTENNA__205__A
*905 ANTENNA__208__B1
*906 ANTENNA__209__A
*907 ANTENNA__212__A
*908 ANTENNA__213__A
*909 ANTENNA__216__B1
*910 ANTENNA__218__A1
*911 ANTENNA__220__A
*912 ANTENNA__221__A
*913 ANTENNA__222__A
*914 ANTENNA__223__A
*915 ANTENNA__225__A
*916 ANTENNA__226__B1
*917 ANTENNA__228__A
*918 ANTENNA__229__A
*919 ANTENNA__233__A
*920 ANTENNA__234__A
*921 ANTENNA__238__A
*922 ANTENNA__242__A
*923 ANTENNA__243__A
*924 ANTENNA__246__A
*925 ANTENNA__247__A
*926 ANTENNA__248__A2
*927 ANTENNA__249__A2
*928 ANTENNA__259__A
*929 ANTENNA__260__A
*930 ANTENNA__260__B_N
*931 ANTENNA__262__A
*932 ANTENNA__263__A
*933 ANTENNA__263__B
*934 ANTENNA__264__A2
*935 ANTENNA__264__A3
*936 ANTENNA__265__A1
*937 ANTENNA__266__A1
*938 ANTENNA__267__A
*939 ANTENNA__269__A
*940 ANTENNA__274__A
*941 ANTENNA__279__A
*942 ANTENNA__283__A
*943 ANTENNA__287__A
*944 ANTENNA__289__B1
*945 ANTENNA__290__A
*946 ANTENNA__290__B
*947 ANTENNA__291__A
*948 ANTENNA__292__B1
*949 ANTENNA__298__A2
*950 ANTENNA__299__A
*951 ANTENNA__308__A1
*952 ANTENNA__310__A
*953 ANTENNA__314__A
*954 ANTENNA__315__A1_N
*955 ANTENNA__315__B2
*956 ANTENNA__316__A1
*957 ANTENNA__317__A1
*958 ANTENNA__320__A
*959 ANTENNA__325__A
*960 ANTENNA__325__B
*961 ANTENNA__328__A
*962 ANTENNA__329__A2
*963 ANTENNA__330__A2
*964 ANTENNA__337__A2
*965 ANTENNA__337__B1
*966 ANTENNA__338__A2
*967 ANTENNA__341__A
*968 ANTENNA__341__B
*969 ANTENNA__343__A2
*970 ANTENNA__344__A2
*971 ANTENNA__352__A
*972 ANTENNA__352__B
*973 ANTENNA__356__A1
*974 ANTENNA__356__A2
*975 ANTENNA__357__A2
*976 ANTENNA__363__B1
*977 ANTENNA__367__A
*978 ANTENNA__367__B
*979 ANTENNA__370__A1
*980 ANTENNA__371__A1
*981 ANTENNA__376__A
*982 ANTENNA__377__A2
*983 ANTENNA__378__A2
*984 ANTENNA__381__A
*985 ANTENNA__381__B
*986 ANTENNA__383__B1
*987 ANTENNA__392__A2
*988 ANTENNA__393__A2
*989 ANTENNA__396__A
*990 ANTENNA__399__A1
*991 ANTENNA__400__A1
*992 ANTENNA__400__B1
*993 ANTENNA__404__B1
*994 ANTENNA__411__A
*995 ANTENNA__415__A2
*996 ANTENNA__415__B1
*997 ANTENNA__416__A2
*998 ANTENNA__418__A
*999 ANTENNA_input10_A
*1000 ANTENNA_input11_A
*1001 ANTENNA_input12_A
*1002 ANTENNA_input13_A
*1003 ANTENNA_input14_A
*1004 ANTENNA_input15_A
*1005 ANTENNA_input16_A
*1006 ANTENNA_input17_A
*1007 ANTENNA_input18_A
*1008 ANTENNA_input19_A
*1009 ANTENNA_input1_A
*1010 ANTENNA_input20_A
*1011 ANTENNA_input21_A
*1012 ANTENNA_input22_A
*1013 ANTENNA_input23_A
*1014 ANTENNA_input24_A
*1015 ANTENNA_input25_A
*1016 ANTENNA_input26_A
*1017 ANTENNA_input27_A
*1018 ANTENNA_input28_A
*1019 ANTENNA_input29_A
*1020 ANTENNA_input2_A
*1021 ANTENNA_input30_A
*1022 ANTENNA_input31_A
*1023 ANTENNA_input32_A
*1024 ANTENNA_input33_A
*1025 ANTENNA_input34_A
*1026 ANTENNA_input35_A
*1027 ANTENNA_input36_A
*1028 ANTENNA_input3_A
*1029 ANTENNA_input4_A
*1030 ANTENNA_input5_A
*1031 ANTENNA_input6_A
*1032 ANTENNA_input7_A
*1033 ANTENNA_input8_A
*1034 ANTENNA_input9_A
*1035 ANTENNA_output37_A
*1036 ANTENNA_output38_A
*1037 ANTENNA_output39_A
*1038 ANTENNA_output40_A
*1039 ANTENNA_output44_A
*1040 ANTENNA_output48_A
*1041 ANTENNA_output50_A
*1042 ANTENNA_output51_A
*1043 ANTENNA_output52_A
*1044 ANTENNA_output53_A
*1045 ANTENNA_output54_A
*1046 ANTENNA_output55_A
*1047 ANTENNA_output56_A
*1048 ANTENNA_output57_A
*1049 ANTENNA_output58_A
*1050 ANTENNA_output59_A
*1051 ANTENNA_output60_A
*1052 ANTENNA_output61_A
*1053 ANTENNA_output62_A
*1054 ANTENNA_output63_A
*1055 FILLER_0_1000
*1056 FILLER_0_1012
*1057 FILLER_0_1023
*1058 FILLER_0_1035
*1059 FILLER_0_1040
*1060 FILLER_0_1047
*1061 FILLER_0_1058
*1062 FILLER_0_1065
*1063 FILLER_0_1070
*1064 FILLER_0_1081
*1065 FILLER_0_1089
*1066 FILLER_0_109
*1067 FILLER_0_1096
*1068 FILLER_0_1105
*1069 FILLER_0_1116
*1070 FILLER_0_1121
*1071 FILLER_0_1128
*1072 FILLER_0_1136
*1073 FILLER_0_1140
*1074 FILLER_0_1152
*1075 FILLER_0_116
*1076 FILLER_0_1163
*1077 FILLER_0_1175
*1078 FILLER_0_1180
*1079 FILLER_0_1187
*1080 FILLER_0_1198
*1081 FILLER_0_1205
*1082 FILLER_0_1209
*1083 FILLER_0_1217
*1084 FILLER_0_1221
*1085 FILLER_0_1229
*1086 FILLER_0_123
*1087 FILLER_0_1236
*1088 FILLER_0_1240
*1089 FILLER_0_1244
*1090 FILLER_0_1252
*1091 FILLER_0_1256
*1092 FILLER_0_1261
*1093 FILLER_0_1267
*1094 FILLER_0_1275
*1095 FILLER_0_1279
*1096 FILLER_0_1287
*1097 FILLER_0_1292
*1098 FILLER_0_1298
*1099 FILLER_0_1302
*1100 FILLER_0_1314
*1101 FILLER_0_132
*1102 FILLER_0_1320
*1103 FILLER_0_1327
*1104 FILLER_0_1333
*1105 FILLER_0_1337
*1106 FILLER_0_1343
*1107 FILLER_0_1345
*1108 FILLER_0_1349
*1109 FILLER_0_1360
*1110 FILLER_0_1376
*1111 FILLER_0_1380
*1112 FILLER_0_1384
*1113 FILLER_0_1395
*1114 FILLER_0_1399
*1115 FILLER_0_1401
*1116 FILLER_0_1407
*1117 FILLER_0_1415
*1118 FILLER_0_1419
*1119 FILLER_0_1427
*1120 FILLER_0_1432
*1121 FILLER_0_1438
*1122 FILLER_0_144
*1123 FILLER_0_1442
*1124 FILLER_0_1454
*1125 FILLER_0_1460
*1126 FILLER_0_1467
*1127 FILLER_0_1473
*1128 FILLER_0_1477
*1129 FILLER_0_1483
*1130 FILLER_0_1488
*1131 FILLER_0_1496
*1132 FILLER_0_1500
*1133 FILLER_0_1516
*1134 FILLER_0_1523
*1135 FILLER_0_1531
*1136 FILLER_0_1535
*1137 FILLER_0_1539
*1138 FILLER_0_1541
*1139 FILLER_0_1546
*1140 FILLER_0_155
*1141 FILLER_0_1554
*1142 FILLER_0_1558
*1143 FILLER_0_1566
*1144 FILLER_0_1572
*1145 FILLER_0_1581
*1146 FILLER_0_1593
*1147 FILLER_0_1600
*1148 FILLER_0_1607
*1149 FILLER_0_1616
*1150 FILLER_0_1628
*1151 FILLER_0_1639
*1152 FILLER_0_1651
*1153 FILLER_0_1656
*1154 FILLER_0_1663
*1155 FILLER_0_167
*1156 FILLER_0_1674
*1157 FILLER_0_1681
*1158 FILLER_0_1686
*1159 FILLER_0_1694
*1160 FILLER_0_1698
*1161 FILLER_0_1706
*1162 FILLER_0_1712
*1163 FILLER_0_172
*1164 FILLER_0_1721
*1165 FILLER_0_1732
*1166 FILLER_0_1737
*1167 FILLER_0_1744
*1168 FILLER_0_1752
*1169 FILLER_0_1756
*1170 FILLER_0_1768
*1171 FILLER_0_1779
*1172 FILLER_0_179
*1173 FILLER_0_1791
*1174 FILLER_0_1796
*1175 FILLER_0_18
*1176 FILLER_0_1803
*1177 FILLER_0_1814
*1178 FILLER_0_1821
*1179 FILLER_0_1825
*1180 FILLER_0_1833
*1181 FILLER_0_1837
*1182 FILLER_0_1845
*1183 FILLER_0_1852
*1184 FILLER_0_1856
*1185 FILLER_0_1860
*1186 FILLER_0_1868
*1187 FILLER_0_1872
*1188 FILLER_0_1877
*1189 FILLER_0_1884
*1190 FILLER_0_1891
*1191 FILLER_0_1898
*1192 FILLER_0_190
*1193 FILLER_0_1908
*1194 FILLER_0_1920
*1195 FILLER_0_1928
*1196 FILLER_0_197
*1197 FILLER_0_202
*1198 FILLER_0_213
*1199 FILLER_0_221
*1200 FILLER_0_228
*1201 FILLER_0_237
*1202 FILLER_0_24
*1203 FILLER_0_248
*1204 FILLER_0_253
*1205 FILLER_0_260
*1206 FILLER_0_268
*1207 FILLER_0_272
*1208 FILLER_0_284
*1209 FILLER_0_29
*1210 FILLER_0_295
*1211 FILLER_0_307
*1212 FILLER_0_312
*1213 FILLER_0_319
*1214 FILLER_0_330
*1215 FILLER_0_337
*1216 FILLER_0_341
*1217 FILLER_0_349
*1218 FILLER_0_35
*1219 FILLER_0_353
*1220 FILLER_0_361
*1221 FILLER_0_368
*1222 FILLER_0_372
*1223 FILLER_0_376
*1224 FILLER_0_384
*1225 FILLER_0_388
*1226 FILLER_0_39
*1227 FILLER_0_393
*1228 FILLER_0_399
*1229 FILLER_0_403
*1230 FILLER_0_407
*1231 FILLER_0_419
*1232 FILLER_0_424
*1233 FILLER_0_431
*1234 FILLER_0_442
*1235 FILLER_0_449
*1236 FILLER_0_454
*1237 FILLER_0_465
*1238 FILLER_0_473
*1239 FILLER_0_480
*1240 FILLER_0_489
*1241 FILLER_0_500
*1242 FILLER_0_505
*1243 FILLER_0_51
*1244 FILLER_0_512
*1245 FILLER_0_523
*1246 FILLER_0_531
*1247 FILLER_0_536
*1248 FILLER_0_547
*1249 FILLER_0_55
*1250 FILLER_0_559
*1251 FILLER_0_564
*1252 FILLER_0_571
*1253 FILLER_0_582
*1254 FILLER_0_589
*1255 FILLER_0_593
*1256 FILLER_0_6
*1257 FILLER_0_60
*1258 FILLER_0_601
*1259 FILLER_0_605
*1260 FILLER_0_613
*1261 FILLER_0_620
*1262 FILLER_0_624
*1263 FILLER_0_628
*1264 FILLER_0_636
*1265 FILLER_0_640
*1266 FILLER_0_645
*1267 FILLER_0_651
*1268 FILLER_0_659
*1269 FILLER_0_66
*1270 FILLER_0_663
*1271 FILLER_0_671
*1272 FILLER_0_676
*1273 FILLER_0_682
*1274 FILLER_0_686
*1275 FILLER_0_698
*1276 FILLER_0_70
*1277 FILLER_0_704
*1278 FILLER_0_711
*1279 FILLER_0_717
*1280 FILLER_0_721
*1281 FILLER_0_727
*1282 FILLER_0_729
*1283 FILLER_0_733
*1284 FILLER_0_744
*1285 FILLER_0_760
*1286 FILLER_0_764
*1287 FILLER_0_768
*1288 FILLER_0_779
*1289 FILLER_0_783
*1290 FILLER_0_785
*1291 FILLER_0_791
*1292 FILLER_0_802
*1293 FILLER_0_810
*1294 FILLER_0_816
*1295 FILLER_0_82
*1296 FILLER_0_822
*1297 FILLER_0_826
*1298 FILLER_0_838
*1299 FILLER_0_844
*1300 FILLER_0_851
*1301 FILLER_0_857
*1302 FILLER_0_861
*1303 FILLER_0_867
*1304 FILLER_0_872
*1305 FILLER_0_88
*1306 FILLER_0_880
*1307 FILLER_0_884
*1308 FILLER_0_900
*1309 FILLER_0_907
*1310 FILLER_0_915
*1311 FILLER_0_919
*1312 FILLER_0_923
*1313 FILLER_0_925
*1314 FILLER_0_930
*1315 FILLER_0_938
*1316 FILLER_0_942
*1317 FILLER_0_950
*1318 FILLER_0_956
*1319 FILLER_0_965
*1320 FILLER_0_97
*1321 FILLER_0_977
*1322 FILLER_0_984
*1323 FILLER_0_991
*1324 FILLER_100_1005
*1325 FILLER_100_1017
*1326 FILLER_100_1029
*1327 FILLER_100_1035
*1328 FILLER_100_1037
*1329 FILLER_100_1049
*1330 FILLER_100_1061
*1331 FILLER_100_1073
*1332 FILLER_100_1085
*1333 FILLER_100_109
*1334 FILLER_100_1091
*1335 FILLER_100_1093
*1336 FILLER_100_1105
*1337 FILLER_100_1117
*1338 FILLER_100_1129
*1339 FILLER_100_1141
*1340 FILLER_100_1147
*1341 FILLER_100_1149
*1342 FILLER_100_1161
*1343 FILLER_100_1173
*1344 FILLER_100_1185
*1345 FILLER_100_1197
*1346 FILLER_100_1203
*1347 FILLER_100_1205
*1348 FILLER_100_121
*1349 FILLER_100_1217
*1350 FILLER_100_1229
*1351 FILLER_100_1241
*1352 FILLER_100_1253
*1353 FILLER_100_1259
*1354 FILLER_100_1261
*1355 FILLER_100_1273
*1356 FILLER_100_1285
*1357 FILLER_100_1297
*1358 FILLER_100_1309
*1359 FILLER_100_1315
*1360 FILLER_100_1317
*1361 FILLER_100_1329
*1362 FILLER_100_133
*1363 FILLER_100_1341
*1364 FILLER_100_1353
*1365 FILLER_100_1365
*1366 FILLER_100_1371
*1367 FILLER_100_1373
*1368 FILLER_100_1385
*1369 FILLER_100_139
*1370 FILLER_100_1397
*1371 FILLER_100_1409
*1372 FILLER_100_141
*1373 FILLER_100_1421
*1374 FILLER_100_1427
*1375 FILLER_100_1429
*1376 FILLER_100_1441
*1377 FILLER_100_1453
*1378 FILLER_100_1465
*1379 FILLER_100_1477
*1380 FILLER_100_1483
*1381 FILLER_100_1485
*1382 FILLER_100_1497
*1383 FILLER_100_15
*1384 FILLER_100_1509
*1385 FILLER_100_1521
*1386 FILLER_100_153
*1387 FILLER_100_1533
*1388 FILLER_100_1539
*1389 FILLER_100_1541
*1390 FILLER_100_1553
*1391 FILLER_100_1565
*1392 FILLER_100_1577
*1393 FILLER_100_1589
*1394 FILLER_100_1595
*1395 FILLER_100_1597
*1396 FILLER_100_1609
*1397 FILLER_100_1621
*1398 FILLER_100_1633
*1399 FILLER_100_1645
*1400 FILLER_100_165
*1401 FILLER_100_1651
*1402 FILLER_100_1653
*1403 FILLER_100_1665
*1404 FILLER_100_1677
*1405 FILLER_100_1689
*1406 FILLER_100_1701
*1407 FILLER_100_1707
*1408 FILLER_100_1709
*1409 FILLER_100_1721
*1410 FILLER_100_1733
*1411 FILLER_100_1745
*1412 FILLER_100_1757
*1413 FILLER_100_1763
*1414 FILLER_100_1765
*1415 FILLER_100_177
*1416 FILLER_100_1777
*1417 FILLER_100_1789
*1418 FILLER_100_1801
*1419 FILLER_100_1813
*1420 FILLER_100_1819
*1421 FILLER_100_1821
*1422 FILLER_100_1833
*1423 FILLER_100_1845
*1424 FILLER_100_1857
*1425 FILLER_100_1869
*1426 FILLER_100_1875
*1427 FILLER_100_1877
*1428 FILLER_100_1889
*1429 FILLER_100_189
*1430 FILLER_100_1901
*1431 FILLER_100_1913
*1432 FILLER_100_1925
*1433 FILLER_100_195
*1434 FILLER_100_197
*1435 FILLER_100_209
*1436 FILLER_100_221
*1437 FILLER_100_233
*1438 FILLER_100_245
*1439 FILLER_100_251
*1440 FILLER_100_253
*1441 FILLER_100_265
*1442 FILLER_100_27
*1443 FILLER_100_277
*1444 FILLER_100_289
*1445 FILLER_100_29
*1446 FILLER_100_3
*1447 FILLER_100_301
*1448 FILLER_100_307
*1449 FILLER_100_309
*1450 FILLER_100_321
*1451 FILLER_100_333
*1452 FILLER_100_345
*1453 FILLER_100_357
*1454 FILLER_100_363
*1455 FILLER_100_365
*1456 FILLER_100_377
*1457 FILLER_100_389
*1458 FILLER_100_401
*1459 FILLER_100_41
*1460 FILLER_100_413
*1461 FILLER_100_419
*1462 FILLER_100_421
*1463 FILLER_100_433
*1464 FILLER_100_445
*1465 FILLER_100_457
*1466 FILLER_100_469
*1467 FILLER_100_475
*1468 FILLER_100_477
*1469 FILLER_100_489
*1470 FILLER_100_501
*1471 FILLER_100_513
*1472 FILLER_100_525
*1473 FILLER_100_53
*1474 FILLER_100_531
*1475 FILLER_100_533
*1476 FILLER_100_545
*1477 FILLER_100_557
*1478 FILLER_100_569
*1479 FILLER_100_581
*1480 FILLER_100_587
*1481 FILLER_100_589
*1482 FILLER_100_601
*1483 FILLER_100_613
*1484 FILLER_100_625
*1485 FILLER_100_637
*1486 FILLER_100_643
*1487 FILLER_100_645
*1488 FILLER_100_65
*1489 FILLER_100_657
*1490 FILLER_100_669
*1491 FILLER_100_681
*1492 FILLER_100_693
*1493 FILLER_100_699
*1494 FILLER_100_701
*1495 FILLER_100_713
*1496 FILLER_100_725
*1497 FILLER_100_737
*1498 FILLER_100_749
*1499 FILLER_100_755
*1500 FILLER_100_757
*1501 FILLER_100_769
*1502 FILLER_100_77
*1503 FILLER_100_781
*1504 FILLER_100_793
*1505 FILLER_100_805
*1506 FILLER_100_811
*1507 FILLER_100_813
*1508 FILLER_100_825
*1509 FILLER_100_83
*1510 FILLER_100_837
*1511 FILLER_100_849
*1512 FILLER_100_85
*1513 FILLER_100_861
*1514 FILLER_100_867
*1515 FILLER_100_869
*1516 FILLER_100_881
*1517 FILLER_100_893
*1518 FILLER_100_905
*1519 FILLER_100_917
*1520 FILLER_100_923
*1521 FILLER_100_925
*1522 FILLER_100_937
*1523 FILLER_100_949
*1524 FILLER_100_961
*1525 FILLER_100_97
*1526 FILLER_100_973
*1527 FILLER_100_979
*1528 FILLER_100_981
*1529 FILLER_100_993
*1530 FILLER_101_1001
*1531 FILLER_101_1007
*1532 FILLER_101_1009
*1533 FILLER_101_1021
*1534 FILLER_101_1033
*1535 FILLER_101_1045
*1536 FILLER_101_105
*1537 FILLER_101_1057
*1538 FILLER_101_1063
*1539 FILLER_101_1065
*1540 FILLER_101_1077
*1541 FILLER_101_1089
*1542 FILLER_101_1101
*1543 FILLER_101_111
*1544 FILLER_101_1113
*1545 FILLER_101_1119
*1546 FILLER_101_1121
*1547 FILLER_101_113
*1548 FILLER_101_1133
*1549 FILLER_101_1145
*1550 FILLER_101_1157
*1551 FILLER_101_1169
*1552 FILLER_101_1175
*1553 FILLER_101_1177
*1554 FILLER_101_1189
*1555 FILLER_101_1201
*1556 FILLER_101_1213
*1557 FILLER_101_1225
*1558 FILLER_101_1231
*1559 FILLER_101_1233
*1560 FILLER_101_1245
*1561 FILLER_101_125
*1562 FILLER_101_1257
*1563 FILLER_101_1269
*1564 FILLER_101_1281
*1565 FILLER_101_1287
*1566 FILLER_101_1289
*1567 FILLER_101_1301
*1568 FILLER_101_1313
*1569 FILLER_101_1325
*1570 FILLER_101_1337
*1571 FILLER_101_1343
*1572 FILLER_101_1345
*1573 FILLER_101_1357
*1574 FILLER_101_1369
*1575 FILLER_101_137
*1576 FILLER_101_1381
*1577 FILLER_101_1393
*1578 FILLER_101_1399
*1579 FILLER_101_1401
*1580 FILLER_101_1413
*1581 FILLER_101_1425
*1582 FILLER_101_1437
*1583 FILLER_101_1449
*1584 FILLER_101_1455
*1585 FILLER_101_1457
*1586 FILLER_101_1469
*1587 FILLER_101_1481
*1588 FILLER_101_149
*1589 FILLER_101_1493
*1590 FILLER_101_15
*1591 FILLER_101_1505
*1592 FILLER_101_1511
*1593 FILLER_101_1513
*1594 FILLER_101_1525
*1595 FILLER_101_1537
*1596 FILLER_101_1549
*1597 FILLER_101_1561
*1598 FILLER_101_1567
*1599 FILLER_101_1569
*1600 FILLER_101_1581
*1601 FILLER_101_1593
*1602 FILLER_101_1605
*1603 FILLER_101_161
*1604 FILLER_101_1617
*1605 FILLER_101_1623
*1606 FILLER_101_1625
*1607 FILLER_101_1637
*1608 FILLER_101_1649
*1609 FILLER_101_1661
*1610 FILLER_101_167
*1611 FILLER_101_1673
*1612 FILLER_101_1679
*1613 FILLER_101_1681
*1614 FILLER_101_169
*1615 FILLER_101_1693
*1616 FILLER_101_1705
*1617 FILLER_101_1717
*1618 FILLER_101_1729
*1619 FILLER_101_1735
*1620 FILLER_101_1737
*1621 FILLER_101_1749
*1622 FILLER_101_1761
*1623 FILLER_101_1773
*1624 FILLER_101_1785
*1625 FILLER_101_1791
*1626 FILLER_101_1793
*1627 FILLER_101_1805
*1628 FILLER_101_181
*1629 FILLER_101_1817
*1630 FILLER_101_1829
*1631 FILLER_101_1841
*1632 FILLER_101_1847
*1633 FILLER_101_1849
*1634 FILLER_101_1861
*1635 FILLER_101_1873
*1636 FILLER_101_1885
*1637 FILLER_101_1897
*1638 FILLER_101_1903
*1639 FILLER_101_1905
*1640 FILLER_101_1917
*1641 FILLER_101_193
*1642 FILLER_101_205
*1643 FILLER_101_217
*1644 FILLER_101_223
*1645 FILLER_101_225
*1646 FILLER_101_237
*1647 FILLER_101_249
*1648 FILLER_101_261
*1649 FILLER_101_27
*1650 FILLER_101_273
*1651 FILLER_101_279
*1652 FILLER_101_281
*1653 FILLER_101_293
*1654 FILLER_101_3
*1655 FILLER_101_305
*1656 FILLER_101_317
*1657 FILLER_101_329
*1658 FILLER_101_335
*1659 FILLER_101_337
*1660 FILLER_101_349
*1661 FILLER_101_361
*1662 FILLER_101_373
*1663 FILLER_101_385
*1664 FILLER_101_39
*1665 FILLER_101_391
*1666 FILLER_101_393
*1667 FILLER_101_405
*1668 FILLER_101_417
*1669 FILLER_101_429
*1670 FILLER_101_441
*1671 FILLER_101_447
*1672 FILLER_101_449
*1673 FILLER_101_461
*1674 FILLER_101_473
*1675 FILLER_101_485
*1676 FILLER_101_497
*1677 FILLER_101_503
*1678 FILLER_101_505
*1679 FILLER_101_51
*1680 FILLER_101_517
*1681 FILLER_101_529
*1682 FILLER_101_541
*1683 FILLER_101_55
*1684 FILLER_101_553
*1685 FILLER_101_559
*1686 FILLER_101_561
*1687 FILLER_101_57
*1688 FILLER_101_573
*1689 FILLER_101_585
*1690 FILLER_101_597
*1691 FILLER_101_609
*1692 FILLER_101_615
*1693 FILLER_101_617
*1694 FILLER_101_629
*1695 FILLER_101_641
*1696 FILLER_101_653
*1697 FILLER_101_665
*1698 FILLER_101_671