*SPEF "ieee 1481-1999"
*DESIGN "user_proj_example"
*DATE "11:11:11 Fri 11 11, 1111"
*VENDOR "OpenRCX"
*PROGRAM "Parallel Extraction"
*VERSION "1.0"
*DESIGN_FLOW "NAME_SCOPE LOCAL" "PIN_CAP NONE"
*DIVIDER /
*DELIMITER :
*BUS_DELIMITER []
*T_UNIT 1 NS
*C_UNIT 1 PF
*R_UNIT 1 OHM
*L_UNIT 1 HENRY

*NAME_MAP
*1 A0[0]
*2 A0[1]
*3 A0[2]
*4 A0[3]
*5 A0[4]
*6 A0[5]
*7 A0[6]
*8 A0[7]
*9 A1[0]
*10 A1[1]
*11 A1[2]
*12 A1[3]
*13 A1[4]
*14 A1[5]
*15 A1[6]
*16 A1[7]
*17 ALU_Out1[0]
*18 ALU_Out1[1]
*19 ALU_Out1[2]
*20 ALU_Out1[3]
*21 ALU_Out1[4]
*22 ALU_Out1[5]
*23 ALU_Out1[6]
*24 ALU_Out1[7]
*25 ALU_Out2[0]
*26 ALU_Out2[1]
*27 ALU_Out2[2]
*28 ALU_Out2[3]
*29 ALU_Out2[4]
*30 ALU_Out2[5]
*31 ALU_Out2[6]
*32 ALU_Out2[7]
*33 ALU_Sel1[0]
*34 ALU_Sel1[1]
*35 ALU_Sel2[0]
*36 ALU_Sel2[1]
*37 B0[0]
*38 B0[1]
*39 B0[2]
*40 B0[3]
*41 B0[4]
*42 B0[5]
*43 B0[6]
*44 B0[7]
*45 B1[0]
*46 B1[1]
*47 B1[2]
*48 B1[3]
*49 B1[4]
*50 B1[5]
*51 B1[6]
*52 B1[7]
*53 CarryOut1
*54 CarryOut2
*55 clk
*58 x[0]
*59 x[1]
*60 x[2]
*61 x[3]
*62 x[4]
*63 x[5]
*64 x[6]
*65 x[7]
*66 y
*67 _000_
*68 _001_
*69 _002_
*70 _003_
*71 _004_
*72 _005_
*73 _006_
*74 _007_
*75 _008_
*76 _009_
*77 _010_
*78 _011_
*79 _012_
*80 _013_
*81 _014_
*82 _015_
*83 _016_
*84 _017_
*85 _018_
*86 _019_
*87 _020_
*88 _021_
*89 _022_
*90 _023_
*91 _024_
*92 _025_
*93 _026_
*94 _027_
*95 _028_
*96 _029_
*97 _030_
*98 _031_
*99 _032_
*100 _033_
*101 _034_
*102 _035_
*103 _036_
*104 _037_
*105 _038_
*106 _039_
*107 _040_
*108 _041_
*109 _042_
*110 _043_
*111 _044_
*112 _045_
*113 _046_
*114 _047_
*115 _048_
*116 _049_
*117 _050_
*118 _051_
*119 _052_
*120 _053_
*121 _054_
*122 _055_
*123 _056_
*124 _057_
*125 _058_
*126 _059_
*127 _060_
*128 _061_
*129 _062_
*130 _063_
*131 _064_
*132 _065_
*133 _066_
*134 _067_
*135 _068_
*136 _069_
*137 _070_
*138 _071_
*139 _072_
*140 _073_
*141 _074_
*142 _075_
*143 _076_
*144 _077_
*145 _078_
*146 _079_
*147 _080_
*148 _081_
*149 _082_
*150 _083_
*151 _084_
*152 _085_
*153 _086_
*154 _087_
*155 _088_
*156 _089_
*157 _090_
*158 _091_
*159 _092_
*160 _093_
*161 _094_
*162 _095_
*163 _096_
*164 _097_
*165 _098_
*166 _099_
*167 _100_
*168 _101_
*169 _102_
*170 _103_
*171 _104_
*172 _105_
*173 _106_
*174 _107_
*175 _108_
*176 _109_
*177 _110_
*178 _111_
*179 _112_
*180 _113_
*181 _114_
*182 _115_
*183 _116_
*184 _117_
*185 _118_
*186 _119_
*187 _120_
*188 _121_
*189 _122_
*190 _123_
*191 _124_
*192 _125_
*193 _126_
*194 _127_
*195 _128_
*196 _129_
*197 _130_
*198 _131_
*199 _132_
*200 _133_
*201 _134_
*202 _135_
*203 _136_
*204 _137_
*205 _138_
*206 _139_
*207 _140_
*208 _141_
*209 _142_
*210 _143_
*211 _144_
*212 _145_
*213 _146_
*214 _147_
*215 _148_
*216 _149_
*217 _150_
*218 _151_
*219 _152_
*220 _153_
*221 _154_
*222 _155_
*223 _156_
*224 _157_
*225 _158_
*226 _159_
*227 _160_
*228 _161_
*229 _162_
*230 _163_
*231 _164_
*232 _165_
*233 _166_
*234 _167_
*235 _168_
*236 _169_
*237 _170_
*238 _171_
*239 _172_
*240 _173_
*241 _174_
*242 _175_
*243 _176_
*244 _177_
*245 _178_
*246 _179_
*247 _180_
*248 _181_
*249 _182_
*250 _183_
*251 _184_
*252 _185_
*253 _186_
*254 _187_
*255 _188_
*256 _189_
*257 _190_
*258 _191_
*259 _192_
*260 _193_
*261 _194_
*262 _195_
*263 _196_
*264 _197_
*265 net1
*266 net10
*267 net11
*268 net12
*269 net13
*270 net14
*271 net15
*272 net16
*273 net17
*274 net18
*275 net19
*276 net2
*277 net20
*278 net21
*279 net22
*280 net23
*281 net24
*282 net25
*283 net26
*284 net27
*285 net28
*286 net29
*287 net3
*288 net30
*289 net31
*290 net32
*291 net33
*292 net34
*293 net35
*294 net36
*295 net37
*296 net38
*297 net39
*298 net4
*299 net40
*300 net41
*301 net42
*302 net43
*303 net44
*304 net45
*305 net46
*306 net47
*307 net48
*308 net49
*309 net5
*310 net50
*311 net51
*312 net52
*313 net53
*314 net54
*315 net55
*316 net56
*317 net57
*318 net58
*319 net59
*320 net6
*321 net60
*322 net61
*323 net62
*324 net63
*325 net64
*326 net65
*327 net7
*328 net8
*329 net9
*330 ANTENNA__198__A
*331 ANTENNA__200__A
*332 ANTENNA__200__B_N
*333 ANTENNA__202__A
*334 ANTENNA__203__A
*335 ANTENNA__203__B
*336 ANTENNA__203__C
*337 ANTENNA__203__D
*338 ANTENNA__204__A
*339 ANTENNA__204__C
*340 ANTENNA__206__A
*341 ANTENNA__207__A
*342 ANTENNA__208__A
*343 ANTENNA__209__A2
*344 ANTENNA__210__A
*345 ANTENNA__211__A
*346 ANTENNA__212__A
*347 ANTENNA__215__A
*348 ANTENNA__217__B1
*349 ANTENNA__218__A
*350 ANTENNA__221__A
*351 ANTENNA__222__A
*352 ANTENNA__222__C
*353 ANTENNA__223__A_N
*354 ANTENNA__224__B1_N
*355 ANTENNA__225__B1
*356 ANTENNA__227__A1
*357 ANTENNA__228__A
*358 ANTENNA__229__A
*359 ANTENNA__230__A
*360 ANTENNA__231__A
*361 ANTENNA__232__A
*362 ANTENNA__234__A
*363 ANTENNA__235__B1
*364 ANTENNA__237__A
*365 ANTENNA__238__A1
*366 ANTENNA__240__A1
*367 ANTENNA__241__A
*368 ANTENNA__242__A
*369 ANTENNA__243__A
*370 ANTENNA__250__A
*371 ANTENNA__251__A
*372 ANTENNA__252__A
*373 ANTENNA__253__A1
*374 ANTENNA__253__A2
*375 ANTENNA__254__A1
*376 ANTENNA__254__A2
*377 ANTENNA__258__A
*378 ANTENNA__259__A
*379 ANTENNA__261__A1
*380 ANTENNA__265__A1_N
*381 ANTENNA__265__B1
*382 ANTENNA__266__A1
*383 ANTENNA__267__A1
*384 ANTENNA__269__A
*385 ANTENNA__270__A
*386 ANTENNA__272__A
*387 ANTENNA__273__A
*388 ANTENNA__274__A1_N
*389 ANTENNA__275__A1
*390 ANTENNA__276__A1
*391 ANTENNA__278__A
*392 ANTENNA__278__B
*393 ANTENNA__279__A
*394 ANTENNA__282__A1
*395 ANTENNA__282__A2
*396 ANTENNA__283__A2
*397 ANTENNA__286__A
*398 ANTENNA__286__B_N
*399 ANTENNA__287__A
*400 ANTENNA__287__B
*401 ANTENNA__289__B1
*402 ANTENNA__290__B1
*403 ANTENNA__291__A
*404 ANTENNA__293__A
*405 ANTENNA__296__A2
*406 ANTENNA__296__B1
*407 ANTENNA__297__A2
*408 ANTENNA__300__A
*409 ANTENNA__300__B
*410 ANTENNA__304__A1
*411 ANTENNA__304__A2
*412 ANTENNA__304__B1
*413 ANTENNA__305__A2
*414 ANTENNA__310__A
*415 ANTENNA__310__B
*416 ANTENNA__311__B1_N
*417 ANTENNA__312__A_N
*418 ANTENNA__312__B
*419 ANTENNA__313__A
*420 ANTENNA__314__B1
*421 ANTENNA__315__A
*422 ANTENNA__319__A
*423 ANTENNA__320__A2
*424 ANTENNA__320__B1
*425 ANTENNA__321__B
*426 ANTENNA__325__A
*427 ANTENNA__325__B
*428 ANTENNA__326__A1
*429 ANTENNA__329__A1
*430 ANTENNA__329__A2
*431 ANTENNA__329__B1
*432 ANTENNA__330__A2
*433 ANTENNA__333__A
*434 ANTENNA__333__B
*435 ANTENNA__333__C
*436 ANTENNA__334__A
*437 ANTENNA__336__A
*438 ANTENNA__337__B1
*439 ANTENNA__338__A
*440 ANTENNA__342__A2
*441 ANTENNA__343__A2
*442 ANTENNA__346__A
*443 ANTENNA__346__B
*444 ANTENNA__349__A1
*445 ANTENNA__350__A1
*446 ANTENNA__353__A
*447 ANTENNA__354__A
*448 ANTENNA__355__A
*449 ANTENNA__361__A1
*450 ANTENNA__361__A2
*451 ANTENNA__362__A1
*452 ANTENNA__362__A2
*453 ANTENNA__365__A
*454 ANTENNA__365__B
*455 ANTENNA__368__A2
*456 ANTENNA__368__B1
*457 ANTENNA__369__A2
*458 ANTENNA__372__A2
*459 ANTENNA__373__A
*460 ANTENNA__374__A
*461 ANTENNA__375__A
*462 ANTENNA__379__A2
*463 ANTENNA__379__B1
*464 ANTENNA__380__A2
*465 ANTENNA__382__A
*466 ANTENNA__382__B
*467 ANTENNA__383__A
*468 ANTENNA__383__B
*469 ANTENNA__384__A1
*470 ANTENNA__384__A2
*471 ANTENNA__389__A2
*472 ANTENNA__389__A3
*473 ANTENNA__390__A
*474 ANTENNA__391__A
*475 ANTENNA__392__B1
*476 ANTENNA__393__A
*477 ANTENNA__395__A1
*478 ANTENNA__399__A2
*479 ANTENNA__399__B1
*480 ANTENNA__400__A2
*481 ANTENNA__403__A
*482 ANTENNA__403__B
*483 ANTENNA__405__A
*484 ANTENNA__406__A
*485 ANTENNA__407__A
*486 ANTENNA__410__A2
*487 ANTENNA__410__B1
*488 ANTENNA__411__A2
*489 ANTENNA__414__A
*490 ANTENNA__414__B
*491 ANTENNA__415__A
*492 ANTENNA__416__A1
*493 ANTENNA__422__A
*494 ANTENNA__422__B
*495 ANTENNA_input10_A
*496 ANTENNA_input11_A
*497 ANTENNA_input12_A
*498 ANTENNA_input13_A
*499 ANTENNA_input14_A
*500 ANTENNA_input15_A
*501 ANTENNA_input16_A
*502 ANTENNA_input17_A
*503 ANTENNA_input18_A
*504 ANTENNA_input19_A
*505 ANTENNA_input1_A
*506 ANTENNA_input20_A
*507 ANTENNA_input21_A
*508 ANTENNA_input22_A
*509 ANTENNA_input23_A
*510 ANTENNA_input24_A
*511 ANTENNA_input25_A
*512 ANTENNA_input26_A
*513 ANTENNA_input27_A
*514 ANTENNA_input28_A
*515 ANTENNA_input29_A
*516 ANTENNA_input2_A
*517 ANTENNA_input30_A
*518 ANTENNA_input31_A
*519 ANTENNA_input32_A
*520 ANTENNA_input33_A
*521 ANTENNA_input34_A
*522 ANTENNA_input35_A
*523 ANTENNA_input36_A
*524 ANTENNA_input3_A
*525 ANTENNA_input4_A
*526 ANTENNA_input5_A
*527 ANTENNA_input6_A
*528 ANTENNA_input7_A
*529 ANTENNA_input8_A
*530 ANTENNA_input9_A
*531 ANTENNA_output37_A
*532 ANTENNA_output38_A
*533 ANTENNA_output39_A
*534 ANTENNA_output40_A
*535 ANTENNA_output41_A
*536 ANTENNA_output42_A
*537 ANTENNA_output43_A
*538 ANTENNA_output44_A
*539 ANTENNA_output45_A
*540 ANTENNA_output46_A
*541 ANTENNA_output47_A
*542 ANTENNA_output48_A
*543 ANTENNA_output49_A
*544 ANTENNA_output50_A
*545 ANTENNA_output51_A
*546 ANTENNA_output52_A
*547 ANTENNA_output53_A
*548 ANTENNA_output54_A
*549 ANTENNA_output55_A
*550 ANTENNA_output56_A
*551 ANTENNA_output57_A
*552 ANTENNA_output58_A
*553 ANTENNA_output59_A
*554 ANTENNA_output60_A
*555 ANTENNA_output61_A
*556 ANTENNA_output62_A
*557 ANTENNA_output63_A
*558 ANTENNA_repeater64_A
*559 ANTENNA_repeater65_A
*560 FILLER_0_1005
*561 FILLER_0_1009
*562 FILLER_0_1021
*563 FILLER_0_1029
*564 FILLER_0_1032
*565 FILLER_0_1043
*566 FILLER_0_1055
*567 FILLER_0_1063
*568 FILLER_0_1065
*569 FILLER_0_1077
*570 FILLER_0_1089
*571 FILLER_0_109
*572 FILLER_0_1093
*573 FILLER_0_1105
*574 FILLER_0_1117
*575 FILLER_0_1121
*576 FILLER_0_113
*577 FILLER_0_1133
*578 FILLER_0_1145
*579 FILLER_0_1149
*580 FILLER_0_1154
*581 FILLER_0_1166
*582 FILLER_0_1174
*583 FILLER_0_1177
*584 FILLER_0_1189
*585 FILLER_0_1201
*586 FILLER_0_1205
*587 FILLER_0_1217
*588 FILLER_0_1229
*589 FILLER_0_1233
*590 FILLER_0_1245
*591 FILLER_0_125
*592 FILLER_0_1257
*593 FILLER_0_1261
*594 FILLER_0_1269
*595 FILLER_0_1282
*596 FILLER_0_1289
*597 FILLER_0_1301
*598 FILLER_0_1313
*599 FILLER_0_1317
*600 FILLER_0_1329
*601 FILLER_0_1341
*602 FILLER_0_1345
*603 FILLER_0_1357
*604 FILLER_0_1369
*605 FILLER_0_137
*606 FILLER_0_1373
*607 FILLER_0_1385
*608 FILLER_0_1393
*609 FILLER_0_1396
*610 FILLER_0_141
*611 FILLER_0_1410
*612 FILLER_0_1422
*613 FILLER_0_1429
*614 FILLER_0_1441
*615 FILLER_0_1453
*616 FILLER_0_1457
*617 FILLER_0_1469
*618 FILLER_0_1481
*619 FILLER_0_1485
*620 FILLER_0_1497
*621 FILLER_0_15
*622 FILLER_0_1509
*623 FILLER_0_1513
*624 FILLER_0_1521
*625 FILLER_0_153
*626 FILLER_0_1533
*627 FILLER_0_1539
*628 FILLER_0_1541
*629 FILLER_0_1553
*630 FILLER_0_1565
*631 FILLER_0_1569
*632 FILLER_0_1581
*633 FILLER_0_1593
*634 FILLER_0_1597
*635 FILLER_0_1609
*636 FILLER_0_1621
*637 FILLER_0_1625
*638 FILLER_0_1633
*639 FILLER_0_1648
*640 FILLER_0_165
*641 FILLER_0_1655
*642 FILLER_0_1667
*643 FILLER_0_1679
*644 FILLER_0_1681
*645 FILLER_0_169
*646 FILLER_0_1693
*647 FILLER_0_1705
*648 FILLER_0_1709
*649 FILLER_0_1721
*650 FILLER_0_1733
*651 FILLER_0_1737
*652 FILLER_0_1749
*653 FILLER_0_1757
*654 FILLER_0_176
*655 FILLER_0_1760
*656 FILLER_0_1769
*657 FILLER_0_1781
*658 FILLER_0_1789
*659 FILLER_0_1793
*660 FILLER_0_1805
*661 FILLER_0_1817
*662 FILLER_0_182
*663 FILLER_0_1821
*664 FILLER_0_1833
*665 FILLER_0_1845
*666 FILLER_0_1849
*667 FILLER_0_1861
*668 FILLER_0_1873
*669 FILLER_0_1877
*670 FILLER_0_1880
*671 FILLER_0_1888
*672 FILLER_0_1900
*673 FILLER_0_1905
*674 FILLER_0_1917
*675 FILLER_0_194
*676 FILLER_0_197
*677 FILLER_0_209
*678 FILLER_0_221
*679 FILLER_0_225
*680 FILLER_0_237
*681 FILLER_0_249
*682 FILLER_0_253
*683 FILLER_0_265
*684 FILLER_0_27
*685 FILLER_0_277
*686 FILLER_0_281
*687 FILLER_0_287
*688 FILLER_0_29
*689 FILLER_0_290
*690 FILLER_0_3
*691 FILLER_0_303
*692 FILLER_0_307
*693 FILLER_0_309
*694 FILLER_0_321
*695 FILLER_0_333
*696 FILLER_0_337
*697 FILLER_0_349
*698 FILLER_0_361
*699 FILLER_0_365
*700 FILLER_0_377
*701 FILLER_0_389
*702 FILLER_0_393
*703 FILLER_0_405
*704 FILLER_0_41
*705 FILLER_0_417
*706 FILLER_0_425
*707 FILLER_0_431
*708 FILLER_0_443
*709 FILLER_0_447
*710 FILLER_0_449
*711 FILLER_0_461
*712 FILLER_0_473
*713 FILLER_0_477
*714 FILLER_0_489
*715 FILLER_0_501
*716 FILLER_0_505
*717 FILLER_0_517
*718 FILLER_0_529
*719 FILLER_0_53
*720 FILLER_0_535
*721 FILLER_0_550
*722 FILLER_0_558
*723 FILLER_0_561
*724 FILLER_0_573
*725 FILLER_0_585
*726 FILLER_0_589
*727 FILLER_0_601
*728 FILLER_0_61
*729 FILLER_0_613
*730 FILLER_0_617
*731 FILLER_0_629
*732 FILLER_0_641
*733 FILLER_0_645
*734 FILLER_0_657
*735 FILLER_0_665
*736 FILLER_0_67
*737 FILLER_0_671
*738 FILLER_0_675
*739 FILLER_0_687
*740 FILLER_0_699
*741 FILLER_0_701
*742 FILLER_0_713
*743 FILLER_0_725
*744 FILLER_0_729
*745 FILLER_0_741
*746 FILLER_0_753
*747 FILLER_0_757
*748 FILLER_0_769
*749 FILLER_0_777
*750 FILLER_0_780
*751 FILLER_0_79
*752 FILLER_0_791
*753 FILLER_0_803
*754 FILLER_0_811
*755 FILLER_0_813
*756 FILLER_0_825
*757 FILLER_0_83
*758 FILLER_0_837
*759 FILLER_0_841
*760 FILLER_0_85
*761 FILLER_0_853
*762 FILLER_0_865
*763 FILLER_0_869
*764 FILLER_0_881
*765 FILLER_0_893
*766 FILLER_0_897
*767 FILLER_0_902
*768 FILLER_0_912
*769 FILLER_0_925
*770 FILLER_0_937
*771 FILLER_0_949
*772 FILLER_0_953
*773 FILLER_0_965
*774 FILLER_0_97
*775 FILLER_0_977
*776 FILLER_0_981
*777 FILLER_0_993
*778 FILLER_100_1005
*779 FILLER_100_1017
*780 FILLER_100_1029
*781 FILLER_100_1035
*782 FILLER_100_1037
*783 FILLER_100_1049
*784 FILLER_100_1061
*785 FILLER_100_1073
*786 FILLER_100_1085
*787 FILLER_100_109
*788 FILLER_100_1091
*789 FILLER_100_1093
*790 FILLER_100_1105
*791 FILLER_100_1117
*792 FILLER_100_1129
*793 FILLER_100_1141
*794 FILLER_100_1147
*795 FILLER_100_1149
*796 FILLER_100_1161
*797 FILLER_100_1173
*798 FILLER_100_1185
*799 FILLER_100_1197
*800 FILLER_100_1203
*801 FILLER_100_1205
*802 FILLER_100_121
*803 FILLER_100_1217
*804 FILLER_100_1229
*805 FILLER_100_1241
*806 FILLER_100_1253
*807 FILLER_100_1259
*808 FILLER_100_1261
*809 FILLER_100_1273
*810 FILLER_100_1285
*811 FILLER_100_1297
*812 FILLER_100_1309
*813 FILLER_100_1315
*814 FILLER_100_1317
*815 FILLER_100_1329
*816 FILLER_100_133
*817 FILLER_100_1341
*818 FILLER_100_1353
*819 FILLER_100_1365
*820 FILLER_100_1371
*821 FILLER_100_1373
*822 FILLER_100_1385
*823 FILLER_100_139
*824 FILLER_100_1397
*825 FILLER_100_1409
*826 FILLER_100_141
*827 FILLER_100_1421
*828 FILLER_100_1427
*829 FILLER_100_1429
*830 FILLER_100_1441
*831 FILLER_100_1453
*832 FILLER_100_1465
*833 FILLER_100_1477
*834 FILLER_100_1483
*835 FILLER_100_1485
*836 FILLER_100_1497
*837 FILLER_100_15
*838 FILLER_100_1509
*839 FILLER_100_1521
*840 FILLER_100_153
*841 FILLER_100_1533
*842 FILLER_100_1539
*843 FILLER_100_1541
*844 FILLER_100_1553
*845 FILLER_100_1565
*846 FILLER_100_1577
*847 FILLER_100_1589
*848 FILLER_100_1595
*849 FILLER_100_1597
*850 FILLER_100_1609
*851 FILLER_100_1621
*852 FILLER_100_1633
*853 FILLER_100_1645
*854 FILLER_100_165
*855 FILLER_100_1651
*856 FILLER_100_1653
*857 FILLER_100_1665
*858 FILLER_100_1677
*859 FILLER_100_1689
*860 FILLER_100_1701
*861 FILLER_100_1707
*862 FILLER_100_1709
*863 FILLER_100_1721
*864 FILLER_100_1733
*865 FILLER_100_1745
*866 FILLER_100_1757
*867 FILLER_100_1763
*868 FILLER_100_1765
*869 FILLER_100_177
*870 FILLER_100_1777
*871 FILLER_100_1789
*872 FILLER_100_1801
*873 FILLER_100_1813
*874 FILLER_100_1819
*875 FILLER_100_1821
*876 FILLER_100_1833
*877 FILLER_100_1845
*878 FILLER_100_1857
*879 FILLER_100_1869
*880 FILLER_100_1875
*881 FILLER_100_1877
*882 FILLER_100_1889
*883 FILLER_100_189
*884 FILLER_100_1901
*885 FILLER_100_1913
*886 FILLER_100_1925
*887 FILLER_100_195
*888 FILLER_100_197
*889 FILLER_100_209
*890 FILLER_100_221
*891 FILLER_100_233
*892 FILLER_100_245
*893 FILLER_100_251
*894 FILLER_100_253
*895 FILLER_100_265
*896 FILLER_100_27
*897 FILLER_100_277
*898 FILLER_100_289
*899 FILLER_100_29
*900 FILLER_100_3
*901 FILLER_100_301
*902 FILLER_100_307
*903 FILLER_100_309
*904 FILLER_100_321
*905 FILLER_100_333
*906 FILLER_100_345
*907 FILLER_100_357
*908 FILLER_100_363
*909 FILLER_100_365
*910 FILLER_100_377
*911 FILLER_100_389
*912 FILLER_100_401
*913 FILLER_100_41
*914 FILLER_100_413
*915 FILLER_100_419
*916 FILLER_100_421
*917 FILLER_100_433
*918 FILLER_100_445
*919 FILLER_100_457
*920 FILLER_100_469
*921 FILLER_100_475
*922 FILLER_100_477
*923 FILLER_100_489
*924 FILLER_100_501
*925 FILLER_100_513
*926 FILLER_100_525
*927 FILLER_100_53
*928 FILLER_100_531
*929 FILLER_100_533
*930 FILLER_100_545
*931 FILLER_100_557
*932 FILLER_100_569
*933 FILLER_100_581
*934 FILLER_100_587
*935 FILLER_100_589
*936 FILLER_100_601
*937 FILLER_100_613
*938 FILLER_100_625
*939 FILLER_100_637
*940 FILLER_100_643
*941 FILLER_100_645
*942 FILLER_100_65
*943 FILLER_100_657
*944 FILLER_100_669
*945 FILLER_100_681
*946 FILLER_100_693
*947 FILLER_100_699
*948 FILLER_100_701
*949 FILLER_100_713
*950 FILLER_100_725
*951 FILLER_100_737
*952 FILLER_100_749
*953 FILLER_100_755
*954 FILLER_100_757
*955 FILLER_100_769
*956 FILLER_100_77
*957 FILLER_100_781
*958 FILLER_100_795
*959 FILLER_100_801
*960 FILLER_100_808
*961 FILLER_100_818
*962 FILLER_100_824
*963 FILLER_100_83
*964 FILLER_100_830
*965 FILLER_100_834
*966 FILLER_100_837
*967 FILLER_100_849
*968 FILLER_100_85
*969 FILLER_100_855
*970 FILLER_100_858
*971 FILLER_100_864
*972 FILLER_100_869
*973 FILLER_100_878
*974 FILLER_100_888
*975 FILLER_100_896
*976 FILLER_100_902
*977 FILLER_100_908
*978 FILLER_100_914
*979 FILLER_100_922
*980 FILLER_100_925
*981 FILLER_100_937
*982 FILLER_100_949
*983 FILLER_100_961
*984 FILLER_100_97
*985 FILLER_100_973
*986 FILLER_100_979
*987 FILLER_100_981
*988 FILLER_100_993
*989 FILLER_101_1001
*990 FILLER_101_1007
*991 FILLER_101_1009
*992 FILLER_101_1021
*993 FILLER_101_1033
*994 FILLER_101_1045
*995 FILLER_101_105
*996 FILLER_101_1057
*997 FILLER_101_1063
*998 FILLER_101_1065
*999 FILLER_101_1077
*1000 FILLER_101_1089
*1001 FILLER_101_1095
*1002 FILLER_101_1107
*1003 FILLER_101_111
*1004 FILLER_101_1119
*1005 FILLER_101_1121
*1006 FILLER_101_113
*1007 FILLER_101_1133
*1008 FILLER_101_1145
*1009 FILLER_101_1157
*1010 FILLER_101_1169
*1011 FILLER_101_1175
*1012 FILLER_101_1177
*1013 FILLER_101_1189
*1014 FILLER_101_1201
*1015 FILLER_101_1213
*1016 FILLER_101_1225
*1017 FILLER_101_1231
*1018 FILLER_101_1233
*1019 FILLER_101_1245
*1020 FILLER_101_125
*1021 FILLER_101_1257
*1022 FILLER_101_1269
*1023 FILLER_101_1281
*1024 FILLER_101_1287
*1025 FILLER_101_1289
*1026 FILLER_101_1301
*1027 FILLER_101_1313
*1028 FILLER_101_1325
*1029 FILLER_101_1337
*1030 FILLER_101_1343
*1031 FILLER_101_1345
*1032 FILLER_101_1357
*1033 FILLER_101_1369
*1034 FILLER_101_137
*1035 FILLER_101_1381
*1036 FILLER_101_1393
*1037 FILLER_101_1399
*1038 FILLER_101_1401
*1039 FILLER_101_1413
*1040 FILLER_101_1425
*1041 FILLER_101_1437
*1042 FILLER_101_1449
*1043 FILLER_101_1455
*1044 FILLER_101_1457
*1045 FILLER_101_1469
*1046 FILLER_101_1481
*1047 FILLER_101_149
*1048 FILLER_101_1493
*1049 FILLER_101_15
*1050 FILLER_101_1505
*1051 FILLER_101_1511
*1052 FILLER_101_1513
*1053 FILLER_101_1525
*1054 FILLER_101_1537
*1055 FILLER_101_1549
*1056 FILLER_101_1561
*1057 FILLER_101_1567
*1058 FILLER_101_1569
*1059 FILLER_101_1581
*1060 FILLER_101_1593
*1061 FILLER_101_1605
*1062 FILLER_101_161
*1063 FILLER_101_1617
*1064 FILLER_101_1623
*1065 FILLER_101_1625
*1066 FILLER_101_1637
*1067 FILLER_101_1649
*1068 FILLER_101_1661
*1069 FILLER_101_167
*1070 FILLER_101_1673
*1071 FILLER_101_1679
*1072 FILLER_101_1681
*1073 FILLER_101_169
*1074 FILLER_101_1693
*1075 FILLER_101_1705
*1076 FILLER_101_1717
*1077 FILLER_101_1729
*1078 FILLER_101_1735
*1079 FILLER_101_1737
*1080 FILLER_101_1749
*1081 FILLER_101_1761
*1082 FILLER_101_1773
*1083 FILLER_101_1785
*1084 FILLER_101_1791
*1085 FILLER_101_1793
*1086 FILLER_101_1805
*1087 FILLER_101_181
*1088 FILLER_101_1817
*1089 FILLER_101_1829
*1090 FILLER_101_1841
*1091 FILLER_101_1847
*1092 FILLER_101_1849
*1093 FILLER_101_1861
*1094 FILLER_101_1873
*1095 FILLER_101_1885
*1096 FILLER_101_1897
*1097 FILLER_101_1903
*1098 FILLER_101_1905
*1099 FILLER_101_1917
*1100 FILLER_101_193
*1101 FILLER_101_205
*1102 FILLER_101_217
*1103 FILLER_101_223
*1104 FILLER_101_225
*1105 FILLER_101_237
*1106 FILLER_101_249
*1107 FILLER_101_261
*1108 FILLER_101_27
*1109 FILLER_101_273
*1110 FILLER_101_279
*1111 FILLER_101_281
*1112 FILLER_101_293
*1113 FILLER_101_3
*1114 FILLER_101_305
*1115 FILLER_101_317
*1116 FILLER_101_329
*1117 FILLER_101_335
*1118 FILLER_101_337
*1119 FILLER_101_349
*1120 FILLER_101_361
*1121 FILLER_101_373
*1122 FILLER_101_385
*1123 FILLER_101_39
*1124 FILLER_101_391
*1125 FILLER_101_393
*1126 FILLER_101_405
*1127 FILLER_101_417
*1128 FILLER_101_429
*1129 FILLER_101_441
*1130 FILLER_101_447
*1131 FILLER_101_449
*1132 FILLER_101_461
*1133 FILLER_101_473
*1134 FILLER_101_485
*1135 FILLER_101_497
*1136 FILLER_101_503
*1137 FILLER_101_505
*1138 FILLER_101_51
*1139 FILLER_101_517
*1140 FILLER_101_529
*1141 FILLER_101_541
*1142 FILLER_101_55
*1143 FILLER_101_553
*1144 FILLER_101_559
*1145 FILLER_101_561
*1146 FILLER_101_57
*1147 FILLER_101_573
*1148 FILLER_101_585
*1149 FILLER_101_597
*1150 FILLER_101_609
*1151 FILLER_101_615
*1152 FILLER_101_617
*1153 FILLER_101_629
*1154 FILLER_101_641
*1155 FILLER_101_653
*1156 FILLER_101_665
*1157 FILLER_101_671
*1158 FILLER_101_673
*1159 FILLER_101_685
*1160 FILLER_101_69
*1161 FILLER_101_697
*1162 FILLER_101_709
*1163 FILLER_101_721
*1164 FILLER_101_727
*1165 FILLER_101_729
*1166 FILLER_101_741
*1167 FILLER_101_753
*1168 FILLER_101_765
*1169 FILLER_101_777
*1170 FILLER_101_783
*1171 FILLER_101_785
*1172 FILLER_101_797
*1173 FILLER_101_801
*1174 FILLER_101_81
*1175 FILLER_101_822
*1176 FILLER_101_828
*1177 FILLER_101_834
*1178 FILLER_101_841
*1179 FILLER_101_851
*1180 FILLER_101_862
*1181 FILLER_101_872
*1182 FILLER_101_882
*1183 FILLER_101_892
*1184 FILLER_101_902
*1185 FILLER_101_908
*1186 FILLER_101_914
*1187 FILLER_101_920
*1188 FILLER_101_926
*1189 FILLER_101_93
*1190 FILLER_101_938
*1191 FILLER_101_950
*1192 FILLER_101_953
*1193 FILLER_101_965
*1194 FILLER_101_977
*1195 FILLER_101_989
*1196 FILLER_102_1005
*1197 FILLER_102_1017
*1198 FILLER_102_1029
*1199 FILLER_102_1035
*1200 FILLER_102_1037
*1201 FILLER_102_1049
*1202 FILLER_102_1061
*1203 FILLER_102_1073
*1204 FILLER_102_1085
*1205 FILLER_102_1088
*1206 FILLER_102_109
*1207 FILLER_102_1093
*1208 FILLER_102_1117
*1209 FILLER_102_1129
*1210 FILLER_102_1141
*1211 FILLER_102_1147
*1212 FILLER_102_1149
*1213 FILLER_102_1161
*1214 FILLER_102_1173
*1215 FILLER_102_1185
*1216 FILLER_102_1197
*1217 FILLER_102_1203
*1218 FILLER_102_1205
*1219 FILLER_102_121
*1220 FILLER_102_1217
*1221 FILLER_102_1229
*1222 FILLER_102_1241
*1223 FILLER_102_1253
*1224 FILLER_102_1259
*1225 FILLER_102_1261
*1226 FILLER_102_1273
*1227 FILLER_102_1285
*1228 FILLER_102_1297
*1229 FILLER_102_1309
*1230 FILLER_102_1315
*1231 FILLER_102_1317
*1232 FILLER_102_1329
*1233 FILLER_102_133
*1234 FILLER_102_1341
*1235 FILLER_102_1353
*1236 FILLER_102_1365
*1237 FILLER_102_1371
*1238 FILLER_102_1373
*1239 FILLER_102_1385
*1240 FILLER_102_139
*1241 FILLER_102_1397
*1242 FILLER_102_1409
*1243 FILLER_102_141
*1244 FILLER_102_1421
*1245 FILLER_102_1427
*1246 FILLER_102_1429
*1247 FILLER_102_1441
*1248 FILLER_102_1453
*1249 FILLER_102_1465
*1250 FILLER_102_1477
*1251 FILLER_102_1483
*1252 FILLER_102_1485
*1253 FILLER_102_1497
*1254 FILLER_102_15
*1255 FILLER_102_1509
*1256 FILLER_102_1521
*1257 FILLER_102_153
*1258 FILLER_102_1533
*1259 FILLER_102_1539
*1260 FILLER_102_1541
*1261 FILLER_102_1553
*1262 FILLER_102_1565
*1263 FILLER_102_1577
*1264 FILLER_102_1589
*1265 FILLER_102_1595
*1266 FILLER_102_1597
*1267 FILLER_102_1609
*1268 FILLER_102_1621
*1269 FILLER_102_1633
*1270 FILLER_102_1645
*1271 FILLER_102_165
*1272 FILLER_102_1651
*1273 FILLER_102_1653
*1274 FILLER_102_1665
*1275 FILLER_102_1677
*1276 FILLER_102_1689
*1277 FILLER_102_1701
*1278 FILLER_102_1707
*1279 FILLER_102_1709
*1280 FILLER_102_1721
*1281 FILLER_102_1733
*1282 FILLER_102_1745
*1283 FILLER_102_1757
*1284 FILLER_102_1763
*1285 FILLER_102_1765
*1286 FILLER_102_177
*1287 FILLER_102_1777
*1288 FILLER_102_1789
*1289 FILLER_102_1801
*1290 FILLER_102_1813
*1291 FILLER_102_1819
*1292 FILLER_102_1821
*1293 FILLER_102_1833
*1294 FILLER_102_1845
*1295 FILLER_102_1857
*1296 FILLER_102_1869
*1297 FILLER_102_1875
*1298 FILLER_102_1877
*1299 FILLER_102_1889
*1300 FILLER_102_189
*1301 FILLER_102_1901
*1302 FILLER_102_1913
*1303 FILLER_102_1925
*1304 FILLER_102_195
*1305 FILLER_102_197
*1306 FILLER_102_209
*1307 FILLER_102_221
*1308 FILLER_102_233
*1309 FILLER_102_245
*1310 FILLER_102_251
*1311 FILLER_102_253
*1312 FILLER_102_265
*1313 FILLER_102_27
*1314 FILLER_102_277
*1315 FILLER_102_289
*1316 FILLER_102_29
*1317 FILLER_102_3
*1318 FILLER_102_301
*1319 FILLER_102_307
*1320 FILLER_102_309
*1321 FILLER_102_321
*1322 FILLER_102_333
*1323 FILLER_102_345
*1324 FILLER_102_357
*1325 FILLER_102_363
*1326 FILLER_102_365
*1327 FILLER_102_377
*1328 FILLER_102_389
*1329 FILLER_102_401
*1330 FILLER_102_41
*1331 FILLER_102_413
*1332 FILLER_102_419
*1333 FILLER_102_421
*1334 FILLER_102_433
*1335 FILLER_102_445
*1336 FILLER_102_457
*1337 FILLER_102_469
*1338 FILLER_102_475
*1339 FILLER_102_477
*1340 FILLER_102_489
*1341 FILLER_102_501
*1342 FILLER_102_513
*1343 FILLER_102_525
*1344 FILLER_102_53
*1345 FILLER_102_531
*1346 FILLER_102_533
*1347 FILLER_102_545
*1348 FILLER_102_557
*1349 FILLER_102_569
*1350 FILLER_102_581
*1351 FILLER_102_587
*1352 FILLER_102_589
*1353 FILLER_102_601
*1354 FILLER_102_613
*1355 FILLER_102_625
*1356 FILLER_102_637
*1357 FILLER_102_643
*1358 FILLER_102_645
*1359 FILLER_102_65
*1360 FILLER_102_657
*1361 FILLER_102_669
*1362 FILLER_102_681
*1363 FILLER_102_693
*1364 FILLER_102_699
*1365 FILLER_102_701
*1366 FILLER_102_713
*1367 FILLER_102_725
*1368 FILLER_102_737
*1369 FILLER_102_749
*1370 FILLER_102_755
*1371 FILLER_102_757
*1372 FILLER_102_769
*1373 FILLER_102_77
*1374 FILLER_102_781
*1375 FILLER_102_793
*1376 FILLER_102_801
*1377 FILLER_102_805
*1378 FILLER_102_811
*1379 FILLER_102_815
*1380 FILLER_102_821
*1381 FILLER_102_83
*1382 FILLER_102_833
*1383 FILLER_102_839
*1384 FILLER_102_845
*1385 FILLER_102_85
*1386 FILLER_102_854
*1387 FILLER_102_864
*1388 FILLER_102_876
*1389 FILLER_102_880
*1390 FILLER_102_887
*1391 FILLER_102_895
*1392 FILLER_102_902
*1393 FILLER_102_912
*1394 FILLER_102_918
*1395 FILLER_102_927
*1396 FILLER_102_933
*1397 FILLER_102_945
*1398 FILLER_102_957
*1399 FILLER_102_969
*1400 FILLER_102_97
*1401 FILLER_102_977
*1402 FILLER_102_981
*1403 FILLER_102_993
*1404 FILLER_103_1001
*1405 FILLER_103_1007
*1406 FILLER_103_1009
*1407 FILLER_103_1021
*1408 FILLER_103_1033
*1409 FILLER_103_1045
*1410 FILLER_103_105
*1411 FILLER_103_1057
*1412 FILLER_103_1063
*1413 FILLER_103_1065
*1414 FILLER_103_1077
*1415 FILLER_103_1089
*1416 FILLER_103_1101
*1417 FILLER_103_111
*1418 FILLER_103_1113
*1419 FILLER_103_1119
*1420 FILLER_103_1121
*1421 FILLER_103_113
*1422 FILLER_103_1133
*1423 FILLER_103_1145
*1424 FILLER_103_1157
*1425 FILLER_103_1169
*1426 FILLER_103_1175
*1427 FILLER_103_1177
*1428 FILLER_103_1189
*1429 FILLER_103_1201
*1430 FILLER_103_1213
*1431 FILLER_103_1225
*1432 FILLER_103_1231
*1433 FILLER_103_1233
*1434 FILLER_103_1245
*1435 FILLER_103_125
*1436 FILLER_103_1257
*1437 FILLER_103_1269
*1438 FILLER_103_1281
*1439 FILLER_103_1287
*1440 FILLER_103_1289
*1441 FILLER_103_1301
*1442 FILLER_103_1313
*1443 FILLER_103_1325
*1444 FILLER_103_1337
*1445 FILLER_103_1343
*1446 FILLER_103_1345
*1447 FILLER_103_1357
*1448 FILLER_103_1369
*1449 FILLER_103_137
*1450 FILLER_103_1381
*1451 FILLER_103_1393
*1452 FILLER_103_1399
*1453 FILLER_103_1401
*1454 FILLER_103_1413
*1455 FILLER_103_1425
*1456 FILLER_103_1437
*1457 FILLER_103_1449
*1458 FILLER_103_1455
*1459 FILLER_103_1457
*1460 FILLER_103_1469
*1461 FILLER_103_1481
*1462 FILLER_103_149
*1463 FILLER_103_1493
*1464 FILLER_103_15
*1465 FILLER_103_1505
*1466 FILLER_103_1511
*1467 FILLER_103_1513
*1468 FILLER_103_1525
*1469 FILLER_103_1537
*1470 FILLER_103_1549
*1471 FILLER_103_1561
*1472 FILLER_103_1567
*1473 FILLER_103_1569
*1474 FILLER_103_1581
*1475 FILLER_103_1593
*1476 FILLER_103_1605
*1477 FILLER_103_161
*1478 FILLER_103_1617
*1479 FILLER_103_1623
*1480 FILLER_103_1625
*1481 FILLER_103_1637
*1482 FILLER_103_1649
*1483 FILLER_103_1661
*1484 FILLER_103_167
*1485 FILLER_103_1673
*1486 FILLER_103_1679
*1487 FILLER_103_1681
*1488 FILLER_103_169
*1489 FILLER_103_1693
*1490 FILLER_103_1705
*1491 FILLER_103_1717
*1492 FILLER_103_1729
*1493 FILLER_103_1735
*1494 FILLER_103_1737
*1495 FILLER_103_1749
*1496 FILLER_103_1761
*1497 FILLER_103_1773
*1498 FILLER_103_1785
*1499 FILLER_103_1791
*1500 FILLER_103_1793
*1501 FILLER_103_1805
*1502 FILLER_103_181
*1503 FILLER_103_1817
*1504 FILLER_103_1829
*1505 FILLER_103_1841
*1506 FILLER_103_1847
*1507 FILLER_103_1849
*1508 FILLER_103_1861
*1509 FILLER_103_1873
*1510 FILLER_103_1885
*1511 FILLER_103_1897
*1512 FILLER_103_1903
*1513 FILLER_103_1905
*1514 FILLER_103_1917
*1515 FILLER_103_193
*1516 FILLER_103_205
*1517 FILLER_103_217
*1518 FILLER_103_223
*1519 FILLER_103_225
*1520 FILLER_103_237
*1521 FILLER_103_249
*1522 FILLER_103_261
*1523 FILLER_103_27
*1524 FILLER_103_273
*1525 FILLER_103_279
*1526 FILLER_103_281
*1527 FILLER_103_293
*1528 FILLER_103_3
*1529 FILLER_103_305
*1530 FILLER_103_317
*1531 FILLER_103_329
*1532 FILLER_103_335
*1533 FILLER_103_337
*1534 FILLER_103_349
*1535 FILLER_103_361
*1536 FILLER_103_373
*1537 FILLER_103_385
*1538 FILLER_103_39
*1539 FILLER_103_391
*1540 FILLER_103_393
*1541 FILLER_103_405
*1542 FILLER_103_417
*1543 FILLER_103_429
*1544 FILLER_103_441
*1545 FILLER_103_447
*1546 FILLER_103_449
*1547 FILLER_103_461
*1548 FILLER_103_473
*1549 FILLER_103_485
*1550 FILLER_103_497
*1551 FILLER_103_503
*1552 FILLER_103_505
*1553 FILLER_103_51
*1554 FILLER_103_517
*1555 FILLER_103_529
*1556 FILLER_103_541
*1557 FILLER_103_55
*1558 FILLER_103_553
*1559 FILLER_103_559
*1560 FILLER_103_561
*1561 FILLER_103_57
*1562 FILLER_103_573
*1563 FILLER_103_585
*1564 FILLER_103_597
*1565 FILLER_103_609
*1566 FILLER_103_615
*1567 FILLER_103_617
*1568 FILLER_103_629
*1569 FILLER_103_641
*1570 FILLER_103_653
*1571 FILLER_103_665
*1572 FILLER_103_671
*1573 FILLER_103_673
*1574 FILLER_103_685
*1575 FILLER_103_69
*1576 FILLER_103_697
*1577 FILLER_103_709
*1578 FILLER_103_721
*1579 FILLER_103_727
*1580 FILLER_103_729
*1581 FILLER_103_741